DEPTH = 1024;
WIDTH = 16;

ADDRESS_RADIX = HEX;
DATA_RADIX = HEX;

CONTENT BEGIN
  00 : 0000;
  01 : 0000;
  02 : 0000;
  03 : 0000;
  04 : 0000;
  05 : 0000;
  06 : 0000;
  07 : 0000;
  08 : 0000;
  09 : 0000;
  0A : 0000;
  0B : 51C8;
  0C : 51C9;
  0D : 51C8;
  0E : 51C8;
  0F : 51C8;
  10 : 51C8;
  11 : 51C8;
  12 : 51C8;
  13 : 51C8;
  14 : 51C8;
  15 : 51C9;
  16 : 51A8;
  17 : 0000;
  18 : 0000;
  19 : 0000;
  1A : 0000;
  1B : 0000;
  1C : 0000;
  1D : 0000;
  1E : 0000;
  1F : 0000;
  20 : 0000;
  21 : 0000;
  22 : 0000;
  23 : 0000;
  24 : 0000;
  25 : 0000;
  26 : 0000;
  27 : 0000;
  28 : 0000;
  29 : 0000;
  2A : 0000;
  2B : 5167;
  2C : 5167;
  2D : 5167;
  2E : 5167;
  2F : 5167;
  30 : 5167;
  31 : 51C8;
  32 : 51A8;
  33 : 4147;
  34 : 4147;
  35 : 4967;
  36 : 4146;
  37 : 0000;
  38 : 0000;
  39 : 0000;
  3A : 0000;
  3B : 0000;
  3C : 0000;
  3D : 0000;
  3E : 0000;
  3F : 0000;
  40 : 0000;
  41 : 0000;
  42 : 0000;
  43 : 0000;
  44 : 0000;
  45 : 0000;
  46 : 0000;
  47 : 51A8;
  48 : 51E9;
  49 : 51A8;
  4A : 5167;
  4B : 532F;
  4C : 5390;
  4D : 5370;
  4E : 5370;
  4F : 5370;
  50 : 5350;
  51 : 51A8;
  52 : 5A09;
  53 : 8BF0;
  54 : 8BD0;
  55 : 93F1;
  56 : 836E;
  57 : 4967;
  58 : 51A8;
  59 : 0000;
  5A : 0000;
  5B : 0000;
  5C : 0000;
  5D : 0000;
  5E : 0000;
  5F : 0000;
  60 : 0000;
  61 : 0000;
  62 : 0000;
  63 : 0000;
  64 : 0000;
  65 : 0000;
  66 : 0000;
  67 : 51A8;
  68 : 59E9;
  69 : 51C9;
  6A : 5167;
  6B : 557A;
  6C : 56FF;
  6D : 56DF;
  6E : 56DF;
  6F : 56DF;
  70 : 569F;
  71 : 4987;
  72 : 6A8B;
  73 : FFFF;
  74 : FFFF;
  75 : FFFF;
  76 : BDB7;
  77 : 4968;
  78 : 51A8;
  79 : 0000;
  7A : 0000;
  7B : 0000;
  7C : 0000;
  7D : 0000;
  7E : 0000;
  7F : 0000;
  80 : 0000;
  81 : 0000;
  82 : 0000;
  83 : 0000;
  84 : 0000;
  85 : 0000;
  86 : 0000;
  87 : 5167;
  88 : 59A8;
  89 : 5187;
  8A : 5126;
  8B : 5559;
  8C : 56DF;
  8D : 569F;
  8E : 569F;
  8F : 56DF;
  90 : 569F;
  91 : 4947;
  92 : 624B;
  93 : FFFF;
  94 : FFDF;
  95 : FFFF;
  96 : B556;
  97 : 4126;
  98 : 4967;
  99 : 0000;
  9A : 0000;
  9B : 0000;
  9C : 0000;
  9D : 0000;
  9E : 0000;
  9F : 0000;
  A0 : 0000;
  A1 : 0000;
  A2 : 0000;
  A3 : 0000;
  A4 : 0000;
  A5 : 51C8;
  A6 : 5988;
  A7 : 5391;
  A8 : 5538;
  A9 : 54F7;
  AA : 54D7;
  AB : 4DDD;
  AC : 4E5F;
  AD : 4E3F;
  AE : 4E5F;
  AF : 5391;
  B0 : 5B91;
  B1 : C5B7;
  B2 : CE18;
  B3 : FFFF;
  B4 : FFDF;
  B5 : FFFF;
  B6 : E71C;
  B7 : C5B7;
  B8 : 9411;
  B9 : 4968;
  BA : 51C8;
  BB : 0000;
  BC : 0000;
  BD : 0000;
  BE : 0000;
  BF : 0000;
  C0 : 0000;
  C1 : 0000;
  C2 : 0000;
  C3 : 0000;
  C4 : 0000;
  C5 : 5167;
  C6 : 6167;
  C7 : 5414;
  C8 : 575F;
  C9 : 56FF;
  CA : 56FF;
  CB : 4E3F;
  CC : 4DFE;
  CD : 4E1E;
  CE : 4E1F;
  CF : 5188;
  D0 : 59A8;
  D1 : FFFF;
  D2 : FFFF;
  D3 : FFDF;
  D4 : FFDF;
  D5 : FFDF;
  D6 : FFFF;
  D7 : FFFF;
  D8 : ACD4;
  D9 : 4947;
  DA : 4967;
  DB : 0000;
  DC : 0000;
  DD : 0000;
  DE : 0000;
  DF : 0000;
  E0 : 0000;
  E1 : 0000;
  E2 : 0000;
  E3 : 39E7;
  E4 : 5189;
  E5 : 520A;
  E6 : 5A0A;
  E7 : 5434;
  E8 : 56DF;
  E9 : 569F;
  EA : 569F;
  EB : 4E3F;
  EC : 4E1F;
  ED : 4E1F;
  EE : 4E1F;
  EF : 51E9;
  F0 : 5A09;
  F1 : FFDF;
  F2 : F7DE;
  F3 : FFDF;
  F4 : FFDF;
  F5 : FFDF;
  F6 : F7BE;
  F7 : EF7D;
  F8 : A493;
  F9 : 5A0A;
  FA : 5A2A;
  FB : 5189;
  FC : 39E7;
  FD : 0000;
  FE : 0000;
  FF : 0000;
  100 : 0000;
  101 : 0000;
  102 : 0000;
  103 : 51A9;
  104 : 59A8;
  105 : 5350;
  106 : 567D;
  107 : 563E;
  108 : 4E1F;
  109 : 4E1F;
  10A : 4E1F;
  10B : 4E1F;
  10C : 4E1F;
  10D : 4E1F;
  10E : 4E1F;
  10F : 51E9;
  110 : 5A09;
  111 : DF5A;
  112 : DF5A;
  113 : FFDF;
  114 : FFDF;
  115 : FFFF;
  116 : BDB7;
  117 : 4988;
  118 : ACF4;
  119 : F77D;
  11A : 83AF;
  11B : 5188;
  11C : 51A9;
  11D : 0000;
  11E : 0000;
  11F : 0000;
  120 : 0000;
  121 : 0000;
  122 : 0000;
  123 : 5146;
  124 : 5966;
  125 : 532F;
  126 : 573F;
  127 : 567F;
  128 : 4DFF;
  129 : 4E1F;
  12A : 4E1F;
  12B : 4E1F;
  12C : 4E1F;
  12D : 4E1F;
  12E : 4E1F;
  12F : 51E9;
  130 : 5A09;
  131 : D739;
  132 : DF5A;
  133 : FFDF;
  134 : FFDF;
  135 : FFFF;
  136 : B556;
  137 : 30A4;
  138 : AD14;
  139 : FFFF;
  13A : 8BD0;
  13B : 51A8;
  13C : 51A9;
  13D : 0000;
  13E : 0000;
  13F : 0000;
  140 : 0000;
  141 : 39E7;
  142 : 51A8;
  143 : 524B;
  144 : 5350;
  145 : 5455;
  146 : 569F;
  147 : 4E3F;
  148 : 4E1F;
  149 : 4E1F;
  14A : 4E1F;
  14B : 4E1F;
  14C : 4E1F;
  14D : 4E1F;
  14E : 4E1F;
  14F : 51E9;
  150 : 5A09;
  151 : DF59;
  152 : DF5A;
  153 : FFDF;
  154 : FFDF;
  155 : FFFF;
  156 : BD76;
  157 : 38E5;
  158 : AD14;
  159 : FFFF;
  15A : 8BB0;
  15B : 5188;
  15C : 51C8;
  15D : 0000;
  15E : 0000;
  15F : 0000;
  160 : 0000;
  161 : 49A7;
  162 : 59C8;
  163 : 52AD;
  164 : 4E9F;
  165 : 4E3F;
  166 : 4E1F;
  167 : 4E1F;
  168 : 4E1F;
  169 : 4E1F;
  16A : 4E1F;
  16B : 4E1F;
  16C : 4E1F;
  16D : 4E1F;
  16E : 4E1F;
  16F : 51E9;
  170 : 59E9;
  171 : DF59;
  172 : DF5A;
  173 : FFDF;
  174 : FFDF;
  175 : FFFF;
  176 : BD76;
  177 : 38E5;
  178 : ACF4;
  179 : FFFF;
  17A : 8BB0;
  17B : 5188;
  17C : 51C8;
  17D : 0000;
  17E : 0000;
  17F : 0000;
  180 : 0000;
  181 : 49A8;
  182 : 51A8;
  183 : 528D;
  184 : 4E5F;
  185 : 4E1F;
  186 : 4E1F;
  187 : 4E1F;
  188 : 4E1F;
  189 : 4E1F;
  18A : 4E1F;
  18B : 4E1F;
  18C : 4E1F;
  18D : 4E1F;
  18E : 4E1F;
  18F : 51C8;
  190 : 59C8;
  191 : DF9A;
  192 : E79B;
  193 : FFFF;
  194 : FFDF;
  195 : FFFF;
  196 : B556;
  197 : 3084;
  198 : ACF4;
  199 : FFFF;
  19A : 8BB0;
  19B : 5188;
  19C : 51C8;
  19D : 0000;
  19E : 0000;
  19F : 0000;
  1A0 : 0000;
  1A1 : 49A8;
  1A2 : 51A8;
  1A3 : 528D;
  1A4 : 4E5F;
  1A5 : 4E1F;
  1A6 : 4E1F;
  1A7 : 4E1F;
  1A8 : 4E1F;
  1A9 : 4E1F;
  1AA : 4E1F;
  1AB : 4E1F;
  1AC : 4E1F;
  1AD : 4E1F;
  1AE : 4E1F;
  1AF : 4CB7;
  1B0 : 5496;
  1B1 : 838E;
  1B2 : 8C30;
  1B3 : E79C;
  1B4 : EF9C;
  1B5 : FFFF;
  1B6 : E71C;
  1B7 : BD76;
  1B8 : DEDB;
  1B9 : FFFF;
  1BA : 8BB0;
  1BB : 5188;
  1BC : 51C8;
  1BD : 0000;
  1BE : 0000;
  1BF : 0000;
  1C0 : 0000;
  1C1 : 49A8;
  1C2 : 51A8;
  1C3 : 52AD;
  1C4 : 4E7F;
  1C5 : 4E3F;
  1C6 : 4E3F;
  1C7 : 4E3F;
  1C8 : 4E3F;
  1C9 : 4E3F;
  1CA : 4E3F;
  1CB : 4E1F;
  1CC : 4E1F;
  1CD : 4E1F;
  1CE : 4E1F;
  1CF : 4E5F;
  1D0 : 4E3F;
  1D1 : 40E5;
  1D2 : 5A09;
  1D3 : E7BA;
  1D4 : E79B;
  1D5 : FFFF;
  1D6 : FFFF;
  1D7 : FFFF;
  1D8 : FFFF;
  1D9 : FFFF;
  1DA : 8BD0;
  1DB : 5188;
  1DC : 51A9;
  1DD : 0000;
  1DE : 0000;
  1DF : 0000;
  1E0 : 0000;
  1E1 : 49A8;
  1E2 : 51A8;
  1E3 : 528C;
  1E4 : 4DFD;
  1E5 : 4DBD;
  1E6 : 4DBD;
  1E7 : 4DBD;
  1E8 : 4DBD;
  1E9 : 4DBD;
  1EA : 4DBD;
  1EB : 4DFE;
  1EC : 4E1F;
  1ED : 4E1F;
  1EE : 4E1F;
  1EF : 4E1F;
  1F0 : 4DFE;
  1F1 : 51EA;
  1F2 : 62CC;
  1F3 : D6F8;
  1F4 : D6F9;
  1F5 : EF5D;
  1F6 : EF5D;
  1F7 : EF5D;
  1F8 : EF5D;
  1F9 : F77D;
  1FA : 838F;
  1FB : 5188;
  1FC : 51C9;
  1FD : 51E9;
  1FE : 780F;
  1FF : 0000;
  200 : 0000;
  201 : 49A8;
  202 : 51C9;
  203 : 51C9;
  204 : 522A;
  205 : 522A;
  206 : 522A;
  207 : 522A;
  208 : 522A;
  209 : 522A;
  20A : 51C9;
  20B : 4D19;
  20C : 4E3F;
  20D : 4E1F;
  20E : 4E1F;
  20F : 4E1F;
  210 : 4E1E;
  211 : 4DBD;
  212 : 4D3A;
  213 : 5A09;
  214 : 5A2A;
  215 : 624A;
  216 : 624A;
  217 : 624A;
  218 : 624A;
  219 : 624A;
  21A : 59E9;
  21B : 51C8;
  21C : 51A8;
  21D : 51C8;
  21E : 49E7;
  21F : 0000;
  220 : 0000;
  221 : 0005;
  222 : 4968;
  223 : 4147;
  224 : 4106;
  225 : 4126;
  226 : 4126;
  227 : 4126;
  228 : 4126;
  229 : 4126;
  22A : 48E5;
  22B : 4D1A;
  22C : 4E9F;
  22D : 4E1F;
  22E : 4E1F;
  22F : 4E1F;
  230 : 4E1F;
  231 : 4EBF;
  232 : 4DDE;
  233 : 4127;
  234 : 4168;
  235 : 4168;
  236 : 4168;
  237 : 4168;
  238 : 4168;
  239 : 4168;
  23A : 4188;
  23B : 49A9;
  23C : 49A9;
  23D : 49C9;
  23E : 2129;
  23F : 0000;
  240 : 51A8;
  241 : 5A09;
  242 : 938B;
  243 : 8B8C;
  244 : 8BF0;
  245 : 8BD0;
  246 : 8BD0;
  247 : 8BD0;
  248 : 8BF0;
  249 : 8BAD;
  24A : 8B6A;
  24B : 5C54;
  24C : 4C97;
  24D : 4DDD;
  24E : 4E1F;
  24F : 4E1F;
  250 : 4DFE;
  251 : 4C97;
  252 : 5435;
  253 : 8A06;
  254 : 8226;
  255 : 8226;
  256 : 8226;
  257 : 8226;
  258 : 8226;
  259 : 8226;
  25A : 8226;
  25B : 8226;
  25C : 8226;
  25D : 8A26;
  25E : 59C8;
  25F : 51A8;
  260 : 51C9;
  261 : 6249;
  262 : FF30;
  263 : FF33;
  264 : FFFF;
  265 : FFFF;
  266 : FFFF;
  267 : FFFF;
  268 : FFFF;
  269 : FF76;
  26A : FF50;
  26B : 82EA;
  26C : 4926;
  26D : 4D7B;
  26E : 4E1F;
  26F : 4E1F;
  270 : 4DFE;
  271 : 5167;
  272 : 69C7;
  273 : F322;
  274 : EB02;
  275 : EB02;
  276 : EB02;
  277 : EB02;
  278 : EB02;
  279 : EB02;
  27A : EB02;
  27B : EB02;
  27C : EB02;
  27D : F302;
  27E : 61E8;
  27F : 51C9;
  280 : 51A8;
  281 : 6229;
  282 : FEEF;
  283 : FEF2;
  284 : FFFF;
  285 : FFDF;
  286 : FFDF;
  287 : FFDF;
  288 : FFFF;
  289 : FF56;
  28A : FF50;
  28B : 82EA;
  28C : 4926;
  28D : 4D7B;
  28E : 4E3F;
  28F : 4E3F;
  290 : 4E1F;
  291 : 4988;
  292 : 61E8;
  293 : F322;
  294 : EB02;
  295 : EB02;
  296 : EB02;
  297 : EB02;
  298 : EB02;
  299 : EB02;
  29A : EB02;
  29B : EB02;
  29C : EB02;
  29D : F302;
  29E : 61E8;
  29F : 51C9;
  2A0 : 51A8;
  2A1 : 624A;
  2A2 : FF9A;
  2A3 : FF9B;
  2A4 : FFDF;
  2A5 : FFDF;
  2A6 : FFDF;
  2A7 : FFDF;
  2A8 : FFFF;
  2A9 : BD33;
  2AA : 8B29;
  2AB : 5BD2;
  2AC : 43F4;
  2AD : 453A;
  2AE : 457C;
  2AF : 5351;
  2B0 : 532F;
  2B1 : B284;
  2B2 : AA85;
  2B3 : 8226;
  2B4 : 8226;
  2B5 : 8226;
  2B6 : 8226;
  2B7 : 8226;
  2B8 : 8226;
  2B9 : 8226;
  2BA : 8226;
  2BB : 8226;
  2BC : 8226;
  2BD : 8A26;
  2BE : 59C8;
  2BF : 51A8;
  2C0 : 51A8;
  2C1 : 624A;
  2C2 : FFFF;
  2C3 : FFFF;
  2C4 : FFDF;
  2C5 : FFDF;
  2C6 : FFDF;
  2C7 : FFFF;
  2C8 : FFFF;
  2C9 : 93F1;
  2CA : 38A4;
  2CB : 4456;
  2CC : 3D9C;
  2CD : 3D1A;
  2CE : 3D1A;
  2CF : 5167;
  2D0 : 5966;
  2D1 : FB22;
  2D2 : DAE3;
  2D3 : 3989;
  2D4 : 4189;
  2D5 : 4189;
  2D6 : 4189;
  2D7 : 4189;
  2D8 : 4189;
  2D9 : 4189;
  2DA : 4189;
  2DB : 4189;
  2DC : 41A9;
  2DD : 49A9;
  2DE : 014A;
  2DF : 0000;
  2E0 : 51A8;
  2E1 : 624A;
  2E2 : FFFF;
  2E3 : FFDF;
  2E4 : FFDF;
  2E5 : FFDE;
  2E6 : FFDE;
  2E7 : F79D;
  2E8 : F77D;
  2E9 : 8C11;
  2EA : 4988;
  2EB : 4456;
  2EC : 3D5A;
  2ED : 453A;
  2EE : 453A;
  2EF : 522B;
  2F0 : 5A09;
  2F1 : DAE3;
  2F2 : C2C4;
  2F3 : 59C8;
  2F4 : 59C8;
  2F5 : 59C8;
  2F6 : 59C8;
  2F7 : 59C8;
  2F8 : 59C8;
  2F9 : 59C8;
  2FA : 59C8;
  2FB : 61E8;
  2FC : 51C8;
  2FD : 51C9;
  2FE : 49A8;
  2FF : 0000;
  300 : 51A8;
  301 : 624A;
  302 : FFFF;
  303 : FFDF;
  304 : FFDF;
  305 : FF9A;
  306 : FF11;
  307 : B4AE;
  308 : 59C9;
  309 : 4BD3;
  30A : 44F9;
  30B : 4519;
  30C : 453A;
  30D : 453A;
  30E : 453A;
  30F : 44D8;
  310 : 44B8;
  311 : 59C8;
  312 : 7207;
  313 : DAE3;
  314 : DAE3;
  315 : DAE3;
  316 : DAE3;
  317 : DAE3;
  318 : DAE3;
  319 : DAE3;
  31A : DAE3;
  31B : E2E3;
  31C : 69E7;
  31D : 51C9;
  31E : 49A8;
  31F : 0000;
  320 : 59C9;
  321 : 6A6B;
  322 : FFFF;
  323 : FFFF;
  324 : FFFF;
  325 : FFFB;
  326 : FF4F;
  327 : B48C;
  328 : 40E5;
  329 : 43D3;
  32A : 3D9C;
  32B : 453A;
  32C : 453A;
  32D : 453A;
  32E : 453A;
  32F : 3D5B;
  330 : 451A;
  331 : 4967;
  332 : 61A7;
  333 : FB22;
  334 : F322;
  335 : F322;
  336 : F322;
  337 : F322;
  338 : F322;
  339 : F322;
  33A : F322;
  33B : FB21;
  33C : 7A28;
  33D : 59EA;
  33E : 5187;
  33F : 0000;
  340 : 51A8;
  341 : 622A;
  342 : C5D8;
  343 : C5B7;
  344 : C5D7;
  345 : C594;
  346 : C52D;
  347 : 8B8B;
  348 : 4947;
  349 : 43D3;
  34A : 3D5B;
  34B : 453A;
  34C : 453A;
  34D : 453A;
  34E : 453A;
  34F : 453A;
  350 : 4519;
  351 : 4AEE;
  352 : 5AED;
  353 : B284;
  354 : B285;
  355 : B285;
  356 : B285;
  357 : B285;
  358 : B285;
  359 : B285;
  35A : B285;
  35B : BAA4;
  35C : 69E7;
  35D : 51C9;
  35E : 5188;
  35F : 0000;
  360 : 0000;
  361 : 3945;
  362 : 4988;
  363 : 4967;
  364 : 4967;
  365 : 4988;
  366 : 4988;
  367 : 49A8;
  368 : 5187;
  369 : 43D3;
  36A : 3D5B;
  36B : 453A;
  36C : 453A;
  36D : 453A;
  36E : 453A;
  36F : 453A;
  370 : 453A;
  371 : 3D7B;
  372 : 44D8;
  373 : 4988;
  374 : 49A9;
  375 : 49A9;
  376 : 49A9;
  377 : 49A9;
  378 : 49A9;
  379 : 49A9;
  37A : 49A9;
  37B : 51C9;
  37C : 49A9;
  37D : 0000;
  37E : 0000;
  37F : 0000;
  380 : 0000;
  381 : 49A8;
  382 : 59C9;
  383 : 51C9;
  384 : 51C9;
  385 : 51C9;
  386 : 51C9;
  387 : 51C9;
  388 : 5987;
  389 : 4BF4;
  38A : 3D7C;
  38B : 3D5B;
  38C : 3D5B;
  38D : 3D5B;
  38E : 3D5B;
  38F : 3D5B;
  390 : 3D5B;
  391 : 3D7B;
  392 : 44D8;
  393 : 51A8;
  394 : 51C9;
  395 : 51C9;
  396 : 51C9;
  397 : 51C9;
  398 : 51C9;
  399 : 51C9;
  39A : 51C9;
  39B : 59E9;
  39C : 51A8;
  39D : 0000;
  39E : 0000;
  39F : 0000;
  3A0 : 0000;
  3A1 : 39E7;
  3A2 : 51C9;
  3A3 : 51A8;
  3A4 : 51A8;
  3A5 : 51A8;
  3A6 : 51A8;
  3A7 : 51A8;
  3A8 : 5187;
  3A9 : 4AAD;
  3AA : 4B0F;
  3AB : 4AEE;
  3AC : 4AEE;
  3AD : 4AEE;
  3AE : 4AEE;
  3AF : 4AEE;
  3B0 : 4AEE;
  3B1 : 4AEF;
  3B2 : 4ACE;
  3B3 : 51A7;
  3B4 : 51A8;
  3B5 : 51A8;
  3B6 : 51A8;
  3B7 : 51A8;
  3B8 : 51A8;
  3B9 : 51A8;
  3BA : 51A8;
  3BB : 51C9;
  3BC : 59E9;
  3BD : 0000;
  3BE : 0000;
  3BF : 0000;
  3C0 : 0000;
  3C1 : 0000;
  3C2 : 0000;
  3C3 : 0000;
  3C4 : 0000;
  3C5 : 0000;
  3C6 : 0000;
  3C7 : 0000;
  3C8 : 0000;
  3C9 : 5187;
  3CA : 5988;
  3CB : 5187;
  3CC : 5187;
  3CD : 5187;
  3CE : 5187;
  3CF : 5187;
  3D0 : 5187;
  3D1 : 5187;
  3D2 : 5187;
  3D3 : 0000;
  3D4 : 0000;
  3D5 : 0000;
  3D6 : 0000;
  3D7 : 0000;
  3D8 : 0000;
  3D9 : 0000;
  3DA : 0000;
  3DB : 0000;
  3DC : 0000;
  3DD : 0000;
  3DE : 0000;
  3DF : 0000;
  3E0 : 0000;
  3E1 : 0000;
  3E2 : 0000;
  3E3 : 0000;
  3E4 : 0000;
  3E5 : 0000;
  3E6 : 0000;
  3E7 : 0000;
  3E8 : 0000;
  3E9 : 51A8;
  3EA : 51C9;
  3EB : 51C8;
  3EC : 51C8;
  3ED : 51C8;
  3EE : 51C8;
  3EF : 51C8;
  3F0 : 51C8;
  3F1 : 51C8;
  3F2 : 51A8;
  3F3 : 0000;
  3F4 : 0000;
  3F5 : 0000;
  3F6 : 0000;
  3F7 : 0000;
  3F8 : 0000;
  3F9 : 0000;
  3FA : 0000;
  3FB : 0000;
  3FC : 0000;
  3FD : 0000;
  3FE : 0000;
  3FF : 0000;
END;
