DEPTH = 16384;
WIDTH = 16;

ADDRESS_RADIX = HEX;
DATA_RADIX = HEX;

CONTENT BEGIN
  00 : 0000;
  01 : 0000;
  02 : 0000;
  03 : 0000;
  04 : 0000;
  05 : 0000;
  06 : 0000;
  07 : 4187;
  08 : 51A8;
  09 : 59C9;
  0A : 51C8;
  0B : 51C8;
  0C : 51C8;
  0D : 51C8;
  0E : 51C8;
  0F : 51C8;
  10 : 51C8;
  11 : 51C8;
  12 : 51C8;
  13 : 51C8;
  14 : 51C8;
  15 : 51C8;
  16 : 51C8;
  17 : 51C8;
  18 : 51C8;
  19 : 51C8;
  1A : 51C8;
  1B : 51C8;
  1C : 51C8;
  1D : 51C8;
  1E : 51C8;
  1F : 51C8;
  20 : 51C8;
  21 : 59E9;
  22 : 51C8;
  23 : 0000;
  24 : 0000;
  25 : 0000;
  26 : 0000;
  27 : 0000;
  28 : 0000;
  29 : 0000;
  2A : 0000;
  2B : 0000;
  2C : 0000;
  2D : 0000;
  2E : 0000;
  2F : 0000;
  30 : 0000;
  31 : 0000;
  32 : 0000;
  33 : 0000;
  34 : 0000;
  35 : 0000;
  36 : 0000;
  37 : 0000;
  38 : 0000;
  39 : 0000;
  3A : 0000;
  3B : 0000;
  3C : 0000;
  3D : 0000;
  3E : 0000;
  3F : 0000;
  40 : 0000;
  41 : 0000;
  42 : 0000;
  43 : 0000;
  44 : 0000;
  45 : 0000;
  46 : 0000;
  47 : 0000;
  48 : 0000;
  49 : 0000;
  4A : 0000;
  4B : 0000;
  4C : 0000;
  4D : 0000;
  4E : 0000;
  4F : 0000;
  50 : 0000;
  51 : 0000;
  52 : 0000;
  53 : 0000;
  54 : 0000;
  55 : 0000;
  56 : 0000;
  57 : 0000;
  58 : 0000;
  59 : 0000;
  5A : 0000;
  5B : 0000;
  5C : 0000;
  5D : 0000;
  5E : 0000;
  5F : 0000;
  60 : 0000;
  61 : 0000;
  62 : 0000;
  63 : 0000;
  64 : 0000;
  65 : 0000;
  66 : 0000;
  67 : 0000;
  68 : 0000;
  69 : 0000;
  6A : 0000;
  6B : 0000;
  6C : 0000;
  6D : 0000;
  6E : 0000;
  6F : 0000;
  70 : 0000;
  71 : 0000;
  72 : 0000;
  73 : 0000;
  74 : 0000;
  75 : 0000;
  76 : 0000;
  77 : 0000;
  78 : 0000;
  79 : 0000;
  7A : 0000;
  7B : 0000;
  7C : 0000;
  7D : 0000;
  7E : 0000;
  7F : 0000;
  80 : 0000;
  81 : 0000;
  82 : 0000;
  83 : 0000;
  84 : 0000;
  85 : 0000;
  86 : 0000;
  87 : 0000;
  88 : 0000;
  89 : 0000;
  8A : 0000;
  8B : 0000;
  8C : 0000;
  8D : 0000;
  8E : 0000;
  8F : 0000;
  90 : 0000;
  91 : 0000;
  92 : 0000;
  93 : 0000;
  94 : 0000;
  95 : 0000;
  96 : 0000;
  97 : 51E9;
  98 : 51A8;
  99 : 59C9;
  9A : 51C8;
  9B : 51C8;
  9C : 51C8;
  9D : 51C8;
  9E : 51C8;
  9F : 51C8;
  A0 : 51C8;
  A1 : 51C8;
  A2 : 51C8;
  A3 : 51C8;
  A4 : 51C8;
  A5 : 51C8;
  A6 : 51C8;
  A7 : 51C8;
  A8 : 51C8;
  A9 : 59E9;
  AA : 51C8;
  AB : 0000;
  AC : 0000;
  AD : 0000;
  AE : 0000;
  AF : 0000;
  B0 : 0000;
  B1 : 0000;
  B2 : 0000;
  B3 : 0000;
  B4 : 0000;
  B5 : 0000;
  B6 : 0000;
  B7 : 0000;
  B8 : 0000;
  B9 : 0000;
  BA : 0000;
  BB : 0000;
  BC : 0000;
  BD : 0000;
  BE : 0000;
  BF : 0000;
  C0 : 0000;
  C1 : 0000;
  C2 : 0000;
  C3 : 0000;
  C4 : 0000;
  C5 : 0000;
  C6 : 0000;
  C7 : 0000;
  C8 : 0000;
  C9 : 0000;
  CA : 0000;
  CB : 0000;
  CC : 0000;
  CD : 0000;
  CE : 0000;
  CF : 0000;
  D0 : 0000;
  D1 : 0000;
  D2 : 0000;
  D3 : 0000;
  D4 : 0000;
  D5 : 0000;
  D6 : 0000;
  D7 : 0000;
  D8 : 0000;
  D9 : 0000;
  DA : 0000;
  DB : 0000;
  DC : 0000;
  DD : 0000;
  DE : 0000;
  DF : 0000;
  E0 : 0000;
  E1 : 0000;
  E2 : 0000;
  E3 : 0000;
  E4 : 0000;
  E5 : 0000;
  E6 : 0000;
  E7 : 0000;
  E8 : 0000;
  E9 : 0000;
  EA : 0000;
  EB : 0000;
  EC : 0000;
  ED : 0000;
  EE : 0000;
  EF : 0000;
  F0 : 0000;
  F1 : 0000;
  F2 : 0000;
  F3 : 0000;
  F4 : 0000;
  F5 : 0000;
  F6 : 0000;
  F7 : 0000;
  F8 : 0000;
  F9 : 0000;
  FA : 0000;
  FB : 0000;
  FC : 0000;
  FD : 0000;
  FE : 0000;
  FF : 0000;
  100 : 0000;
  101 : 0000;
  102 : 0000;
  103 : 0000;
  104 : 0000;
  105 : 0000;
  106 : 0000;
  107 : 28A2;
  108 : 4947;
  109 : 4968;
  10A : 4967;
  10B : 4967;
  10C : 4967;
  10D : 4967;
  10E : 4967;
  10F : 4967;
  110 : 4967;
  111 : 4967;
  112 : 4967;
  113 : 4967;
  114 : 4967;
  115 : 4967;
  116 : 4967;
  117 : 4967;
  118 : 4967;
  119 : 4967;
  11A : 4967;
  11B : 4967;
  11C : 4967;
  11D : 4967;
  11E : 4967;
  11F : 4967;
  120 : 51A8;
  121 : 59E9;
  122 : 51C8;
  123 : 0000;
  124 : 0000;
  125 : 0000;
  126 : 0000;
  127 : 0000;
  128 : 0000;
  129 : 0000;
  12A : 0000;
  12B : 0000;
  12C : 0000;
  12D : 0000;
  12E : 0000;
  12F : 0000;
  130 : 0000;
  131 : 0000;
  132 : 0000;
  133 : 0000;
  134 : 0000;
  135 : 0000;
  136 : 0000;
  137 : 0000;
  138 : 0000;
  139 : 0000;
  13A : 0000;
  13B : 0000;
  13C : 0000;
  13D : 0000;
  13E : 0000;
  13F : 0000;
  140 : 0000;
  141 : 0000;
  142 : 0000;
  143 : 0000;
  144 : 0000;
  145 : 0000;
  146 : 0000;
  147 : 0000;
  148 : 0000;
  149 : 0000;
  14A : 0000;
  14B : 0000;
  14C : 0000;
  14D : 0000;
  14E : 0000;
  14F : 0000;
  150 : 0000;
  151 : 0000;
  152 : 0000;
  153 : 0000;
  154 : 0000;
  155 : 0000;
  156 : 0000;
  157 : 0000;
  158 : 0000;
  159 : 0000;
  15A : 0000;
  15B : 0000;
  15C : 0000;
  15D : 0000;
  15E : 0000;
  15F : 0000;
  160 : 0000;
  161 : 0000;
  162 : 0000;
  163 : 0000;
  164 : 0000;
  165 : 0000;
  166 : 0000;
  167 : 0000;
  168 : 0000;
  169 : 0000;
  16A : 0000;
  16B : 0000;
  16C : 0000;
  16D : 0000;
  16E : 0000;
  16F : 0000;
  170 : 0000;
  171 : 0000;
  172 : 0000;
  173 : 0000;
  174 : 0000;
  175 : 0000;
  176 : 0000;
  177 : 0000;
  178 : 0000;
  179 : 0000;
  17A : 0000;
  17B : 0000;
  17C : 0000;
  17D : 0000;
  17E : 0000;
  17F : 0000;
  180 : 0000;
  181 : 0000;
  182 : 0000;
  183 : 0000;
  184 : 0000;
  185 : 0000;
  186 : 0000;
  187 : 0000;
  188 : 0000;
  189 : 0000;
  18A : 0000;
  18B : 0000;
  18C : 0000;
  18D : 0000;
  18E : 0000;
  18F : 0000;
  190 : 0000;
  191 : 0000;
  192 : 0000;
  193 : 0000;
  194 : 0000;
  195 : 0000;
  196 : 0000;
  197 : 38E3;
  198 : 4947;
  199 : 4968;
  19A : 4967;
  19B : 4967;
  19C : 4967;
  19D : 4967;
  19E : 4967;
  19F : 4967;
  1A0 : 4967;
  1A1 : 4967;
  1A2 : 4967;
  1A3 : 4967;
  1A4 : 4967;
  1A5 : 4967;
  1A6 : 4967;
  1A7 : 4967;
  1A8 : 4967;
  1A9 : 5188;
  1AA : 4967;
  1AB : 0000;
  1AC : 0000;
  1AD : 0000;
  1AE : 0000;
  1AF : 0000;
  1B0 : 0000;
  1B1 : 0000;
  1B2 : 0000;
  1B3 : 0000;
  1B4 : 0000;
  1B5 : 0000;
  1B6 : 0000;
  1B7 : 0000;
  1B8 : 0000;
  1B9 : 0000;
  1BA : 0000;
  1BB : 0000;
  1BC : 0000;
  1BD : 0000;
  1BE : 0000;
  1BF : 0000;
  1C0 : 0000;
  1C1 : 0000;
  1C2 : 0000;
  1C3 : 0000;
  1C4 : 0000;
  1C5 : 0000;
  1C6 : 0000;
  1C7 : 0000;
  1C8 : 0000;
  1C9 : 0000;
  1CA : 0000;
  1CB : 0000;
  1CC : 0000;
  1CD : 0000;
  1CE : 0000;
  1CF : 0000;
  1D0 : 0000;
  1D1 : 0000;
  1D2 : 0000;
  1D3 : 0000;
  1D4 : 0000;
  1D5 : 0000;
  1D6 : 0000;
  1D7 : 0000;
  1D8 : 0000;
  1D9 : 0000;
  1DA : 0000;
  1DB : 0000;
  1DC : 0000;
  1DD : 0000;
  1DE : 0000;
  1DF : 0000;
  1E0 : 0000;
  1E1 : 0000;
  1E2 : 0000;
  1E3 : 0000;
  1E4 : 0000;
  1E5 : 0000;
  1E6 : 0000;
  1E7 : 0000;
  1E8 : 0000;
  1E9 : 0000;
  1EA : 0000;
  1EB : 0000;
  1EC : 0000;
  1ED : 0000;
  1EE : 0000;
  1EF : 0000;
  1F0 : 0000;
  1F1 : 0000;
  1F2 : 0000;
  1F3 : 0000;
  1F4 : 0000;
  1F5 : 0000;
  1F6 : 0000;
  1F7 : 0000;
  1F8 : 0000;
  1F9 : 0000;
  1FA : 0000;
  1FB : 0000;
  1FC : 0000;
  1FD : 0000;
  1FE : 0000;
  1FF : 0000;
  200 : 0000;
  201 : 0000;
  202 : 0000;
  203 : 0000;
  204 : 0000;
  205 : 41A6;
  206 : 5188;
  207 : 5209;
  208 : 624B;
  209 : 6A6B;
  20A : 624B;
  20B : 624B;
  20C : 624B;
  20D : 624B;
  20E : 624B;
  20F : 624B;
  210 : 624B;
  211 : 624B;
  212 : 624B;
  213 : 624B;
  214 : 624B;
  215 : 624B;
  216 : 624B;
  217 : 624B;
  218 : 624B;
  219 : 624B;
  21A : 624B;
  21B : 624B;
  21C : 624B;
  21D : 624B;
  21E : 624B;
  21F : 624A;
  220 : 51C9;
  221 : 59C9;
  222 : 51C8;
  223 : 0000;
  224 : 0000;
  225 : 0000;
  226 : 0000;
  227 : 0000;
  228 : 0000;
  229 : 0000;
  22A : 0000;
  22B : 0000;
  22C : 0000;
  22D : 0000;
  22E : 0000;
  22F : 0000;
  230 : 0000;
  231 : 0000;
  232 : 0000;
  233 : 0000;
  234 : 0000;
  235 : 0000;
  236 : 0000;
  237 : 0000;
  238 : 0000;
  239 : 0000;
  23A : 0000;
  23B : 0000;
  23C : 0000;
  23D : 0000;
  23E : 0000;
  23F : 0000;
  240 : 0000;
  241 : 0000;
  242 : 0000;
  243 : 0000;
  244 : 0000;
  245 : 0000;
  246 : 0000;
  247 : 0000;
  248 : 0000;
  249 : 0000;
  24A : 0000;
  24B : 0000;
  24C : 0000;
  24D : 0000;
  24E : 0000;
  24F : 0000;
  250 : 0000;
  251 : 0000;
  252 : 0000;
  253 : 0000;
  254 : 0000;
  255 : 0000;
  256 : 0000;
  257 : 0000;
  258 : 0000;
  259 : 0000;
  25A : 0000;
  25B : 0000;
  25C : 0000;
  25D : 0000;
  25E : 0000;
  25F : 0000;
  260 : 0000;
  261 : 0000;
  262 : 0000;
  263 : 0000;
  264 : 0000;
  265 : 0000;
  266 : 0000;
  267 : 0000;
  268 : 0000;
  269 : 0000;
  26A : 0000;
  26B : 0000;
  26C : 0000;
  26D : 0000;
  26E : 0000;
  26F : 0000;
  270 : 0000;
  271 : 0000;
  272 : 0000;
  273 : 0000;
  274 : 0000;
  275 : 0000;
  276 : 0000;
  277 : 0000;
  278 : 0000;
  279 : 0000;
  27A : 0000;
  27B : 0000;
  27C : 0000;
  27D : 0000;
  27E : 0000;
  27F : 0000;
  280 : 0000;
  281 : 0000;
  282 : 0000;
  283 : 0000;
  284 : 0000;
  285 : 0000;
  286 : 0000;
  287 : 0000;
  288 : 0000;
  289 : 0000;
  28A : 0000;
  28B : 0000;
  28C : 0000;
  28D : 0000;
  28E : 0000;
  28F : 0000;
  290 : 0000;
  291 : 0000;
  292 : 0000;
  293 : 0000;
  294 : 0000;
  295 : 49E7;
  296 : 5188;
  297 : 5A2A;
  298 : 624B;
  299 : 6A6B;
  29A : 624B;
  29B : 624B;
  29C : 624B;
  29D : 624B;
  29E : 624B;
  29F : 624B;
  2A0 : 624B;
  2A1 : 624B;
  2A2 : 624B;
  2A3 : 624B;
  2A4 : 624B;
  2A5 : 624B;
  2A6 : 624B;
  2A7 : 624B;
  2A8 : 624B;
  2A9 : 6A6B;
  2AA : 624A;
  2AB : 4187;
  2AC : 49C8;
  2AD : 3945;
  2AE : 0000;
  2AF : 0000;
  2B0 : 0000;
  2B1 : 0000;
  2B2 : 0000;
  2B3 : 0000;
  2B4 : 0000;
  2B5 : 0000;
  2B6 : 0000;
  2B7 : 0000;
  2B8 : 0000;
  2B9 : 0000;
  2BA : 0000;
  2BB : 0000;
  2BC : 0000;
  2BD : 0000;
  2BE : 0000;
  2BF : 0000;
  2C0 : 0000;
  2C1 : 0000;
  2C2 : 0000;
  2C3 : 0000;
  2C4 : 0000;
  2C5 : 0000;
  2C6 : 0000;
  2C7 : 0000;
  2C8 : 0000;
  2C9 : 0000;
  2CA : 0000;
  2CB : 0000;
  2CC : 0000;
  2CD : 0000;
  2CE : 0000;
  2CF : 0000;
  2D0 : 0000;
  2D1 : 0000;
  2D2 : 0000;
  2D3 : 0000;
  2D4 : 0000;
  2D5 : 0000;
  2D6 : 0000;
  2D7 : 0000;
  2D8 : 0000;
  2D9 : 0000;
  2DA : 0000;
  2DB : 0000;
  2DC : 0000;
  2DD : 0000;
  2DE : 0000;
  2DF : 0000;
  2E0 : 0000;
  2E1 : 0000;
  2E2 : 0000;
  2E3 : 0000;
  2E4 : 0000;
  2E5 : 0000;
  2E6 : 0000;
  2E7 : 0000;
  2E8 : 0000;
  2E9 : 0000;
  2EA : 0000;
  2EB : 0000;
  2EC : 0000;
  2ED : 0000;
  2EE : 0000;
  2EF : 0000;
  2F0 : 0000;
  2F1 : 0000;
  2F2 : 0000;
  2F3 : 0000;
  2F4 : 0000;
  2F5 : 0000;
  2F6 : 0000;
  2F7 : 0000;
  2F8 : 0000;
  2F9 : 0000;
  2FA : 0000;
  2FB : 0000;
  2FC : 0000;
  2FD : 0000;
  2FE : 0000;
  2FF : 0000;
  300 : 0000;
  301 : 0000;
  302 : 0000;
  303 : 0000;
  304 : 0000;
  305 : 51A8;
  306 : 5188;
  307 : 624A;
  308 : DE9A;
  309 : E71C;
  30A : E71C;
  30B : E71C;
  30C : E71C;
  30D : E71C;
  30E : E71C;
  30F : E71C;
  310 : E71C;
  311 : E71C;
  312 : E71C;
  313 : E71C;
  314 : E71C;
  315 : E71C;
  316 : E71C;
  317 : E71C;
  318 : E71C;
  319 : E71C;
  31A : E71C;
  31B : E71C;
  31C : E71C;
  31D : E71C;
  31E : E71C;
  31F : DE9A;
  320 : 622A;
  321 : 51A8;
  322 : 51C8;
  323 : 0000;
  324 : 0000;
  325 : 0000;
  326 : 0000;
  327 : 0000;
  328 : 0000;
  329 : 0000;
  32A : 0000;
  32B : 0000;
  32C : 0000;
  32D : 0000;
  32E : 0000;
  32F : 0000;
  330 : 0000;
  331 : 0000;
  332 : 0000;
  333 : 0000;
  334 : 0000;
  335 : 0000;
  336 : 0000;
  337 : 0000;
  338 : 0000;
  339 : 0000;
  33A : 0000;
  33B : 0000;
  33C : 0000;
  33D : 0000;
  33E : 0000;
  33F : 0000;
  340 : 0000;
  341 : 0000;
  342 : 0000;
  343 : 0000;
  344 : 0000;
  345 : 0000;
  346 : 0000;
  347 : 0000;
  348 : 0000;
  349 : 0000;
  34A : 0000;
  34B : 0000;
  34C : 0000;
  34D : 0000;
  34E : 0000;
  34F : 0000;
  350 : 0000;
  351 : 0000;
  352 : 0000;
  353 : 0000;
  354 : 0000;
  355 : 0000;
  356 : 0000;
  357 : 0000;
  358 : 0000;
  359 : 0000;
  35A : 0000;
  35B : 0000;
  35C : 0000;
  35D : 0000;
  35E : 0000;
  35F : 0000;
  360 : 0000;
  361 : 0000;
  362 : 0000;
  363 : 0000;
  364 : 0000;
  365 : 0000;
  366 : 0000;
  367 : 0000;
  368 : 0000;
  369 : 0000;
  36A : 0000;
  36B : 0000;
  36C : 0000;
  36D : 0000;
  36E : 0000;
  36F : 0000;
  370 : 0000;
  371 : 0000;
  372 : 0000;
  373 : 0000;
  374 : 0000;
  375 : 0000;
  376 : 0000;
  377 : 0000;
  378 : 0000;
  379 : 0000;
  37A : 0000;
  37B : 0000;
  37C : 0000;
  37D : 0000;
  37E : 0000;
  37F : 0000;
  380 : 0000;
  381 : 0000;
  382 : 0000;
  383 : 0000;
  384 : 0000;
  385 : 0000;
  386 : 0000;
  387 : 0000;
  388 : 0000;
  389 : 0000;
  38A : 0000;
  38B : 0000;
  38C : 0000;
  38D : 0000;
  38E : 0000;
  38F : 0000;
  390 : 0000;
  391 : 0000;
  392 : 0000;
  393 : 0000;
  394 : 0000;
  395 : 51C8;
  396 : 5188;
  397 : 624A;
  398 : DE9A;
  399 : E71C;
  39A : E71C;
  39B : E71C;
  39C : E71C;
  39D : E71C;
  39E : E71C;
  39F : E71C;
  3A0 : E71C;
  3A1 : E71C;
  3A2 : E71C;
  3A3 : E71C;
  3A4 : E71C;
  3A5 : E71C;
  3A6 : E71C;
  3A7 : E71C;
  3A8 : E71C;
  3A9 : E71C;
  3AA : B556;
  3AB : 4967;
  3AC : 51C9;
  3AD : 51A8;
  3AE : 0000;
  3AF : 0000;
  3B0 : 0000;
  3B1 : 0000;
  3B2 : 0000;
  3B3 : 0000;
  3B4 : 0000;
  3B5 : 0000;
  3B6 : 0000;
  3B7 : 0000;
  3B8 : 0000;
  3B9 : 0000;
  3BA : 0000;
  3BB : 0000;
  3BC : 0000;
  3BD : 0000;
  3BE : 0000;
  3BF : 0000;
  3C0 : 0000;
  3C1 : 0000;
  3C2 : 0000;
  3C3 : 0000;
  3C4 : 0000;
  3C5 : 0000;
  3C6 : 0000;
  3C7 : 0000;
  3C8 : 0000;
  3C9 : 0000;
  3CA : 0000;
  3CB : 0000;
  3CC : 0000;
  3CD : 0000;
  3CE : 0000;
  3CF : 0000;
  3D0 : 0000;
  3D1 : 0000;
  3D2 : 0000;
  3D3 : 0000;
  3D4 : 0000;
  3D5 : 0000;
  3D6 : 0000;
  3D7 : 0000;
  3D8 : 0000;
  3D9 : 0000;
  3DA : 0000;
  3DB : 0000;
  3DC : 0000;
  3DD : 0000;
  3DE : 0000;
  3DF : 0000;
  3E0 : 0000;
  3E1 : 0000;
  3E2 : 0000;
  3E3 : 0000;
  3E4 : 0000;
  3E5 : 0000;
  3E6 : 0000;
  3E7 : 0000;
  3E8 : 0000;
  3E9 : 0000;
  3EA : 0000;
  3EB : 0000;
  3EC : 0000;
  3ED : 0000;
  3EE : 0000;
  3EF : 0000;
  3F0 : 0000;
  3F1 : 0000;
  3F2 : 0000;
  3F3 : 0000;
  3F4 : 0000;
  3F5 : 0000;
  3F6 : 0000;
  3F7 : 0000;
  3F8 : 0000;
  3F9 : 0000;
  3FA : 0000;
  3FB : 0000;
  3FC : 0000;
  3FD : 0000;
  3FE : 0000;
  3FF : 0000;
  400 : 0000;
  401 : 0000;
  402 : 0000;
  403 : 0000;
  404 : 0000;
  405 : 4967;
  406 : 4947;
  407 : 5A0A;
  408 : FFDF;
  409 : FFFF;
  40A : FFFF;
  40B : FFFF;
  40C : FFFF;
  40D : FFFF;
  40E : FFFF;
  40F : FFFF;
  410 : FFFF;
  411 : FFFF;
  412 : FFFF;
  413 : FFFF;
  414 : FFFF;
  415 : FFFF;
  416 : FFFF;
  417 : FFFF;
  418 : FFFF;
  419 : FFFF;
  41A : FFFF;
  41B : FFFF;
  41C : FFFF;
  41D : FFFF;
  41E : FFFF;
  41F : FFDF;
  420 : 624A;
  421 : 5188;
  422 : 51C8;
  423 : 0000;
  424 : 0000;
  425 : 0000;
  426 : 0000;
  427 : 0000;
  428 : 0000;
  429 : 0000;
  42A : 0000;
  42B : 0000;
  42C : 0000;
  42D : 0000;
  42E : 0000;
  42F : 0000;
  430 : 0000;
  431 : 0000;
  432 : 0000;
  433 : 0000;
  434 : 0000;
  435 : 0000;
  436 : 0000;
  437 : 0000;
  438 : 0000;
  439 : 0000;
  43A : 0000;
  43B : 0000;
  43C : 0000;
  43D : 0000;
  43E : 0000;
  43F : 0000;
  440 : 0000;
  441 : 0000;
  442 : 0000;
  443 : 0000;
  444 : 0000;
  445 : 0000;
  446 : 0000;
  447 : 0000;
  448 : 0000;
  449 : 0000;
  44A : 0000;
  44B : 0000;
  44C : 0000;
  44D : 0000;
  44E : 0000;
  44F : 0000;
  450 : 0000;
  451 : 0000;
  452 : 0000;
  453 : 0000;
  454 : 0000;
  455 : 0000;
  456 : 0000;
  457 : 0000;
  458 : 0000;
  459 : 0000;
  45A : 0000;
  45B : 0000;
  45C : 0000;
  45D : 0000;
  45E : 0000;
  45F : 0000;
  460 : 0000;
  461 : 0000;
  462 : 0000;
  463 : 0000;
  464 : 0000;
  465 : 0000;
  466 : 0000;
  467 : 0000;
  468 : 0000;
  469 : 0000;
  46A : 0000;
  46B : 0000;
  46C : 0000;
  46D : 0000;
  46E : 0000;
  46F : 0000;
  470 : 0000;
  471 : 0000;
  472 : 0000;
  473 : 0000;
  474 : 0000;
  475 : 0000;
  476 : 0000;
  477 : 0000;
  478 : 0000;
  479 : 0000;
  47A : 0000;
  47B : 0000;
  47C : 0000;
  47D : 0000;
  47E : 0000;
  47F : 0000;
  480 : 0000;
  481 : 0000;
  482 : 0000;
  483 : 0000;
  484 : 0000;
  485 : 0000;
  486 : 0000;
  487 : 0000;
  488 : 0000;
  489 : 0000;
  48A : 0000;
  48B : 0000;
  48C : 0000;
  48D : 0000;
  48E : 0000;
  48F : 0000;
  490 : 0000;
  491 : 0000;
  492 : 0000;
  493 : 0000;
  494 : 0000;
  495 : 4967;
  496 : 4947;
  497 : 5A0A;
  498 : FFDF;
  499 : FFFF;
  49A : FFFF;
  49B : FFFF;
  49C : FFFF;
  49D : FFFF;
  49E : FFFF;
  49F : FFFF;
  4A0 : FFFF;
  4A1 : FFFF;
  4A2 : FFFF;
  4A3 : FFFF;
  4A4 : FFFF;
  4A5 : FFFF;
  4A6 : FFFF;
  4A7 : FFFF;
  4A8 : FFFF;
  4A9 : FFFF;
  4AA : CE18;
  4AB : 4127;
  4AC : 5188;
  4AD : 4147;
  4AE : 0000;
  4AF : 0000;
  4B0 : 0000;
  4B1 : 0000;
  4B2 : 0000;
  4B3 : 0000;
  4B4 : 0000;
  4B5 : 0000;
  4B6 : 0000;
  4B7 : 0000;
  4B8 : 0000;
  4B9 : 0000;
  4BA : 0000;
  4BB : 0000;
  4BC : 0000;
  4BD : 0000;
  4BE : 0000;
  4BF : 0000;
  4C0 : 0000;
  4C1 : 0000;
  4C2 : 0000;
  4C3 : 0000;
  4C4 : 0000;
  4C5 : 0000;
  4C6 : 0000;
  4C7 : 0000;
  4C8 : 0000;
  4C9 : 0000;
  4CA : 0000;
  4CB : 0000;
  4CC : 0000;
  4CD : 0000;
  4CE : 0000;
  4CF : 0000;
  4D0 : 0000;
  4D1 : 0000;
  4D2 : 0000;
  4D3 : 0000;
  4D4 : 0000;
  4D5 : 0000;
  4D6 : 0000;
  4D7 : 0000;
  4D8 : 0000;
  4D9 : 0000;
  4DA : 0000;
  4DB : 0000;
  4DC : 0000;
  4DD : 0000;
  4DE : 0000;
  4DF : 0000;
  4E0 : 0000;
  4E1 : 0000;
  4E2 : 0000;
  4E3 : 0000;
  4E4 : 0000;
  4E5 : 0000;
  4E6 : 0000;
  4E7 : 0000;
  4E8 : 0000;
  4E9 : 0000;
  4EA : 0000;
  4EB : 0000;
  4EC : 0000;
  4ED : 0000;
  4EE : 0000;
  4EF : 0000;
  4F0 : 0000;
  4F1 : 0000;
  4F2 : 0000;
  4F3 : 0000;
  4F4 : 0000;
  4F5 : 0000;
  4F6 : 0000;
  4F7 : 0000;
  4F8 : 0000;
  4F9 : 0000;
  4FA : 0000;
  4FB : 0000;
  4FC : 0000;
  4FD : 0000;
  4FE : 0000;
  4FF : 0000;
  500 : 0000;
  501 : 0000;
  502 : 514A;
  503 : 51C8;
  504 : 4147;
  505 : 5A2A;
  506 : 5A0A;
  507 : 6AAC;
  508 : F77E;
  509 : FFFF;
  50A : FFFF;
  50B : FFDE;
  50C : FFDE;
  50D : FFDE;
  50E : FFDE;
  50F : FFDE;
  510 : FFDE;
  511 : FFDE;
  512 : FFDE;
  513 : FFDE;
  514 : FFDE;
  515 : FFDE;
  516 : FFDE;
  517 : FFDE;
  518 : FFDE;
  519 : FFDE;
  51A : FFDE;
  51B : FFDE;
  51C : FFDE;
  51D : FFFF;
  51E : FFFF;
  51F : F77E;
  520 : 624A;
  521 : 5188;
  522 : 51C8;
  523 : 0000;
  524 : 0000;
  525 : 0000;
  526 : 0000;
  527 : 0000;
  528 : 0000;
  529 : 0000;
  52A : 0000;
  52B : 0000;
  52C : 0000;
  52D : 0000;
  52E : 0000;
  52F : 0000;
  530 : 0000;
  531 : 0000;
  532 : 0000;
  533 : 0000;
  534 : 0000;
  535 : 0000;
  536 : 0000;
  537 : 0000;
  538 : 0000;
  539 : 0000;
  53A : 0000;
  53B : 0000;
  53C : 0000;
  53D : 0000;
  53E : 0000;
  53F : 0000;
  540 : 0000;
  541 : 0000;
  542 : 0000;
  543 : 0000;
  544 : 0000;
  545 : 0000;
  546 : 0000;
  547 : 0000;
  548 : 0000;
  549 : 0000;
  54A : 0000;
  54B : 0000;
  54C : 0000;
  54D : 0000;
  54E : 0000;
  54F : 0000;
  550 : 0000;
  551 : 0000;
  552 : 0000;
  553 : 0000;
  554 : 0000;
  555 : 0000;
  556 : 0000;
  557 : 0000;
  558 : 0000;
  559 : 0000;
  55A : 0000;
  55B : 0000;
  55C : 0000;
  55D : 0000;
  55E : 0000;
  55F : 0000;
  560 : 0000;
  561 : 0000;
  562 : 0000;
  563 : 0000;
  564 : 0000;
  565 : 0000;
  566 : 0000;
  567 : 0000;
  568 : 49E9;
  569 : 51C8;
  56A : 51C8;
  56B : 51C8;
  56C : 51C8;
  56D : 51C8;
  56E : 51C8;
  56F : 51C8;
  570 : 51C8;
  571 : 51C8;
  572 : 51C8;
  573 : 51C8;
  574 : 51C8;
  575 : 51C8;
  576 : 51C8;
  577 : 51C8;
  578 : 51C8;
  579 : 51C8;
  57A : 51E7;
  57B : 0000;
  57C : 0000;
  57D : 0000;
  57E : 0000;
  57F : 0000;
  580 : 0000;
  581 : 0000;
  582 : 0000;
  583 : 0000;
  584 : 0000;
  585 : 0000;
  586 : 0000;
  587 : 0000;
  588 : 0000;
  589 : 0000;
  58A : 0000;
  58B : 0000;
  58C : 0000;
  58D : 0000;
  58E : 0000;
  58F : 0000;
  590 : 0000;
  591 : 0000;
  592 : 514A;
  593 : 51C8;
  594 : 4147;
  595 : 5A2A;
  596 : 5A0A;
  597 : 6AAC;
  598 : F77E;
  599 : FFFF;
  59A : FFFF;
  59B : FFDE;
  59C : FFDE;
  59D : FFDE;
  59E : FFDE;
  59F : FFDE;
  5A0 : FFDE;
  5A1 : FFDE;
  5A2 : FFDE;
  5A3 : FFDE;
  5A4 : FFDE;
  5A5 : FFDE;
  5A6 : FFDE;
  5A7 : FFDE;
  5A8 : FFFF;
  5A9 : FFFF;
  5AA : CDF8;
  5AB : 59E9;
  5AC : 622A;
  5AD : 5A0A;
  5AE : 4147;
  5AF : 3967;
  5B0 : 0000;
  5B1 : 0000;
  5B2 : 0000;
  5B3 : 0000;
  5B4 : 0000;
  5B5 : 0000;
  5B6 : 0000;
  5B7 : 0000;
  5B8 : 0000;
  5B9 : 0000;
  5BA : 0000;
  5BB : 0000;
  5BC : 0000;
  5BD : 0000;
  5BE : 0000;
  5BF : 0000;
  5C0 : 0000;
  5C1 : 0000;
  5C2 : 0000;
  5C3 : 0000;
  5C4 : 0000;
  5C5 : 0000;
  5C6 : 0000;
  5C7 : 0000;
  5C8 : 0000;
  5C9 : 0000;
  5CA : 0000;
  5CB : 0000;
  5CC : 0000;
  5CD : 51E7;
  5CE : 51A8;
  5CF : 4987;
  5D0 : 4987;
  5D1 : 4987;
  5D2 : 4987;
  5D3 : 4987;
  5D4 : 4987;
  5D5 : 4987;
  5D6 : 4987;
  5D7 : 4987;
  5D8 : 4987;
  5D9 : 4987;
  5DA : 4987;
  5DB : 4987;
  5DC : 4987;
  5DD : 4987;
  5DE : 51A8;
  5DF : 49E9;
  5E0 : 0000;
  5E1 : 0000;
  5E2 : 0000;
  5E3 : 0000;
  5E4 : 0000;
  5E5 : 0000;
  5E6 : 0000;
  5E7 : 0000;
  5E8 : 0000;
  5E9 : 0000;
  5EA : 0000;
  5EB : 0000;
  5EC : 0000;
  5ED : 0000;
  5EE : 0000;
  5EF : 0000;
  5F0 : 0000;
  5F1 : 0000;
  5F2 : 0000;
  5F3 : 0000;
  5F4 : 0000;
  5F5 : 0000;
  5F6 : 0000;
  5F7 : 0000;
  5F8 : 0000;
  5F9 : 0000;
  5FA : 0000;
  5FB : 0000;
  5FC : 0000;
  5FD : 0000;
  5FE : 0000;
  5FF : 0000;
  600 : 0000;
  601 : 0000;
  602 : 51A8;
  603 : 51C9;
  604 : 4967;
  605 : B555;
  606 : DEDB;
  607 : E6FB;
  608 : FFFF;
  609 : FFFF;
  60A : FF39;
  60B : FD6C;
  60C : FD8D;
  60D : FD8D;
  60E : FD8D;
  60F : FD8D;
  610 : FD8D;
  611 : FD8D;
  612 : FD8D;
  613 : FD8D;
  614 : FD8D;
  615 : FD8D;
  616 : FD8D;
  617 : FD8D;
  618 : FD8D;
  619 : FD8D;
  61A : FD8D;
  61B : FD8D;
  61C : FD6C;
  61D : FF39;
  61E : FFFF;
  61F : F77E;
  620 : 624A;
  621 : 5188;
  622 : 51C8;
  623 : 0000;
  624 : 0000;
  625 : 0000;
  626 : 0000;
  627 : 0000;
  628 : 0000;
  629 : 0000;
  62A : 0000;
  62B : 0000;
  62C : 0000;
  62D : 0000;
  62E : 0000;
  62F : 0000;
  630 : 0000;
  631 : 0000;
  632 : 0000;
  633 : 0000;
  634 : 0000;
  635 : 0000;
  636 : 0000;
  637 : 0000;
  638 : 0000;
  639 : 0000;
  63A : 0000;
  63B : 0000;
  63C : 0000;
  63D : 0000;
  63E : 0000;
  63F : 0000;
  640 : 0000;
  641 : 0000;
  642 : 0000;
  643 : 0000;
  644 : 0000;
  645 : 0000;
  646 : 0000;
  647 : 0000;
  648 : 0000;
  649 : 0000;
  64A : 0000;
  64B : 0000;
  64C : 0000;
  64D : 0000;
  64E : 0000;
  64F : 0000;
  650 : 0000;
  651 : 0000;
  652 : 0000;
  653 : 0000;
  654 : 0000;
  655 : 0000;
  656 : 0000;
  657 : 0000;
  658 : 0000;
  659 : 0000;
  65A : 0000;
  65B : 0000;
  65C : 0000;
  65D : 0000;
  65E : 0000;
  65F : 0000;
  660 : 0000;
  661 : 0000;
  662 : 0000;
  663 : 0000;
  664 : 0000;
  665 : 0000;
  666 : 0000;
  667 : 59E9;
  668 : 51A8;
  669 : 59C9;
  66A : 51C8;
  66B : 51C8;
  66C : 51C8;
  66D : 51C8;
  66E : 51C8;
  66F : 51C8;
  670 : 51C8;
  671 : 51C8;
  672 : 51C8;
  673 : 51C8;
  674 : 51C8;
  675 : 51C8;
  676 : 51C8;
  677 : 51C8;
  678 : 51C8;
  679 : 59E9;
  67A : 51C8;
  67B : 0000;
  67C : 0000;
  67D : 0000;
  67E : 0000;
  67F : 0000;
  680 : 0000;
  681 : 0000;
  682 : 0000;
  683 : 0000;
  684 : 0000;
  685 : 0000;
  686 : 0000;
  687 : 0000;
  688 : 0000;
  689 : 0000;
  68A : 0000;
  68B : 0000;
  68C : 0000;
  68D : 0000;
  68E : 0000;
  68F : 0000;
  690 : 0000;
  691 : 0000;
  692 : 51A8;
  693 : 51C9;
  694 : 4967;
  695 : B555;
  696 : DEDB;
  697 : E6FB;
  698 : FFFF;
  699 : FFFF;
  69A : FF39;
  69B : FD6C;
  69C : FD8D;
  69D : FD8D;
  69E : FD8D;
  69F : FD8D;
  6A0 : FD8D;
  6A1 : FD8D;
  6A2 : FD8D;
  6A3 : FD8D;
  6A4 : FD8D;
  6A5 : FD8D;
  6A6 : FD6C;
  6A7 : FDCE;
  6A8 : FFDE;
  6A9 : FFFF;
  6AA : F79E;
  6AB : DEDB;
  6AC : E6DB;
  6AD : 8BB0;
  6AE : 4967;
  6AF : 51A8;
  6B0 : 4166;
  6B1 : 0000;
  6B2 : 0000;
  6B3 : 0000;
  6B4 : 0000;
  6B5 : 0000;
  6B6 : 0000;
  6B7 : 0000;
  6B8 : 0000;
  6B9 : 0000;
  6BA : 0000;
  6BB : 0000;
  6BC : 0000;
  6BD : 0000;
  6BE : 0000;
  6BF : 0000;
  6C0 : 0000;
  6C1 : 0000;
  6C2 : 0000;
  6C3 : 0000;
  6C4 : 0000;
  6C5 : 0000;
  6C6 : 0000;
  6C7 : 0000;
  6C8 : 0000;
  6C9 : 0000;
  6CA : 0000;
  6CB : 0000;
  6CC : 0000;
  6CD : 51C8;
  6CE : 59E9;
  6CF : 51C8;
  6D0 : 51C8;
  6D1 : 51C8;
  6D2 : 51C8;
  6D3 : 51C8;
  6D4 : 51C8;
  6D5 : 51C8;
  6D6 : 51C8;
  6D7 : 51C8;
  6D8 : 51C8;
  6D9 : 51C8;
  6DA : 51C8;
  6DB : 51C8;
  6DC : 51C8;
  6DD : 51C8;
  6DE : 59C9;
  6DF : 51A8;
  6E0 : 51C8;
  6E1 : 0000;
  6E2 : 0000;
  6E3 : 0000;
  6E4 : 0000;
  6E5 : 0000;
  6E6 : 0000;
  6E7 : 0000;
  6E8 : 0000;
  6E9 : 0000;
  6EA : 0000;
  6EB : 0000;
  6EC : 0000;
  6ED : 0000;
  6EE : 0000;
  6EF : 0000;
  6F0 : 0000;
  6F1 : 0000;
  6F2 : 0000;
  6F3 : 0000;
  6F4 : 0000;
  6F5 : 0000;
  6F6 : 0000;
  6F7 : 0000;
  6F8 : 0000;
  6F9 : 0000;
  6FA : 0000;
  6FB : 0000;
  6FC : 0000;
  6FD : 0000;
  6FE : 0000;
  6FF : 0000;
  700 : 0000;
  701 : 0000;
  702 : 4967;
  703 : 5188;
  704 : 4947;
  705 : CE18;
  706 : FFFF;
  707 : FFFF;
  708 : FFFF;
  709 : FFFF;
  70A : FEF8;
  70B : FCA6;
  70C : FCC7;
  70D : FCC7;
  70E : FCC7;
  70F : FCC7;
  710 : FCC7;
  711 : FCC7;
  712 : FCC7;
  713 : FCC7;
  714 : FCC7;
  715 : FCC7;
  716 : FCC7;
  717 : FCC7;
  718 : FCC7;
  719 : FCC7;
  71A : FCC7;
  71B : FCC7;
  71C : FCA6;
  71D : FEF7;
  71E : FFFF;
  71F : F77E;
  720 : 624A;
  721 : 5188;
  722 : 51C8;
  723 : 0000;
  724 : 0000;
  725 : 0000;
  726 : 0000;
  727 : 0000;
  728 : 0000;
  729 : 0000;
  72A : 0000;
  72B : 0000;
  72C : 0000;
  72D : 0000;
  72E : 0000;
  72F : 0000;
  730 : 0000;
  731 : 0000;
  732 : 0000;
  733 : 0000;
  734 : 0000;
  735 : 0000;
  736 : 0000;
  737 : 0000;
  738 : 0000;
  739 : 0000;
  73A : 0000;
  73B : 0000;
  73C : 0000;
  73D : 0000;
  73E : 0000;
  73F : 0000;
  740 : 0000;
  741 : 0000;
  742 : 0000;
  743 : 0000;
  744 : 0000;
  745 : 0000;
  746 : 0000;
  747 : 0000;
  748 : 0000;
  749 : 0000;
  74A : 0000;
  74B : 0000;
  74C : 0000;
  74D : 0000;
  74E : 0000;
  74F : 0000;
  750 : 0000;
  751 : 0000;
  752 : 0000;
  753 : 0000;
  754 : 0000;
  755 : 0000;
  756 : 0000;
  757 : 0000;
  758 : 0000;
  759 : 0000;
  75A : 0000;
  75B : 0000;
  75C : 0000;
  75D : 0000;
  75E : 0000;
  75F : 0000;
  760 : 0000;
  761 : 0000;
  762 : 0000;
  763 : 0000;
  764 : 0000;
  765 : 0000;
  766 : 0000;
  767 : 4986;
  768 : 4967;
  769 : 51A8;
  76A : 5188;
  76B : 5188;
  76C : 5188;
  76D : 5188;
  76E : 5188;
  76F : 5188;
  770 : 5188;
  771 : 5188;
  772 : 5188;
  773 : 5188;
  774 : 5188;
  775 : 5188;
  776 : 5188;
  777 : 5188;
  778 : 5188;
  779 : 59A9;
  77A : 4967;
  77B : 0000;
  77C : 0000;
  77D : 0000;
  77E : 0000;
  77F : 0000;
  780 : 0000;
  781 : 0000;
  782 : 0000;
  783 : 0000;
  784 : 0000;
  785 : 0000;
  786 : 0000;
  787 : 0000;
  788 : 0000;
  789 : 0000;
  78A : 0000;
  78B : 0000;
  78C : 0000;
  78D : 0000;
  78E : 0000;
  78F : 0000;
  790 : 0000;
  791 : 0000;
  792 : 4967;
  793 : 5188;
  794 : 4947;
  795 : CE18;
  796 : FFFF;
  797 : FFFF;
  798 : FFFF;
  799 : FFFF;
  79A : FEF8;
  79B : FCA6;
  79C : FCC7;
  79D : FCC7;
  79E : FCC7;
  79F : FCC7;
  7A0 : FCC7;
  7A1 : FCC7;
  7A2 : FCC7;
  7A3 : FCC7;
  7A4 : FCC7;
  7A5 : FCC7;
  7A6 : FCA6;
  7A7 : FD09;
  7A8 : FFDF;
  7A9 : FFFF;
  7AA : FFFF;
  7AB : FFFF;
  7AC : FFFF;
  7AD : 93F1;
  7AE : 4126;
  7AF : 4967;
  7B0 : 28E3;
  7B1 : 0000;
  7B2 : 0000;
  7B3 : 0000;
  7B4 : 0000;
  7B5 : 0000;
  7B6 : 0000;
  7B7 : 0000;
  7B8 : 0000;
  7B9 : 0000;
  7BA : 0000;
  7BB : 0000;
  7BC : 0000;
  7BD : 0000;
  7BE : 0000;
  7BF : 0000;
  7C0 : 0000;
  7C1 : 0000;
  7C2 : 0000;
  7C3 : 0000;
  7C4 : 0000;
  7C5 : 0000;
  7C6 : 0000;
  7C7 : 0000;
  7C8 : 0000;
  7C9 : 0000;
  7CA : 0000;
  7CB : 0000;
  7CC : 0000;
  7CD : 4967;
  7CE : 59A9;
  7CF : 5188;
  7D0 : 5188;
  7D1 : 5188;
  7D2 : 5188;
  7D3 : 5188;
  7D4 : 5188;
  7D5 : 5188;
  7D6 : 5188;
  7D7 : 5188;
  7D8 : 5188;
  7D9 : 5188;
  7DA : 5188;
  7DB : 5188;
  7DC : 5188;
  7DD : 5188;
  7DE : 51A8;
  7DF : 4967;
  7E0 : 3924;
  7E1 : 0000;
  7E2 : 0000;
  7E3 : 0000;
  7E4 : 0000;
  7E5 : 0000;
  7E6 : 0000;
  7E7 : 0000;
  7E8 : 0000;
  7E9 : 0000;
  7EA : 0000;
  7EB : 0000;
  7EC : 0000;
  7ED : 0000;
  7EE : 0000;
  7EF : 0000;
  7F0 : 0000;
  7F1 : 0000;
  7F2 : 0000;
  7F3 : 0000;
  7F4 : 0000;
  7F5 : 0000;
  7F6 : 0000;
  7F7 : 0000;
  7F8 : 0000;
  7F9 : 0000;
  7FA : 0000;
  7FB : 0000;
  7FC : 0000;
  7FD : 0000;
  7FE : 0000;
  7FF : 0000;
  800 : 51E7;
  801 : 3947;
  802 : 59E9;
  803 : 5A0A;
  804 : 51C9;
  805 : C5F8;
  806 : FFFF;
  807 : FFFF;
  808 : FFDE;
  809 : FFDE;
  80A : FED7;
  80B : FCC7;
  80C : FCE8;
  80D : FD09;
  80E : FD09;
  80F : FD09;
  810 : FD09;
  811 : FD09;
  812 : FD09;
  813 : FD09;
  814 : FD09;
  815 : FD09;
  816 : FD09;
  817 : FD09;
  818 : FD09;
  819 : FD09;
  81A : FD09;
  81B : FCE8;
  81C : FCC7;
  81D : FEF8;
  81E : FFFF;
  81F : F77E;
  820 : 624A;
  821 : 5188;
  822 : 51C8;
  823 : 0000;
  824 : 0000;
  825 : 0000;
  826 : 0000;
  827 : 0000;
  828 : 0000;
  829 : 0000;
  82A : 0000;
  82B : 0000;
  82C : 0000;
  82D : 0000;
  82E : 0000;
  82F : 0000;
  830 : 0000;
  831 : 0000;
  832 : 0000;
  833 : 0000;
  834 : 0000;
  835 : 0000;
  836 : 0000;
  837 : 0000;
  838 : 0000;
  839 : 0000;
  83A : 0000;
  83B : 0000;
  83C : 0000;
  83D : 0000;
  83E : 0000;
  83F : 0000;
  840 : 0000;
  841 : 0000;
  842 : 0000;
  843 : 0000;
  844 : 0000;
  845 : 0000;
  846 : 0000;
  847 : 0000;
  848 : 0000;
  849 : 0000;
  84A : 0000;
  84B : 0000;
  84C : 0000;
  84D : 0000;
  84E : 0000;
  84F : 0000;
  850 : 0000;
  851 : 0000;
  852 : 0000;
  853 : 0000;
  854 : 0000;
  855 : 0000;
  856 : 0000;
  857 : 0000;
  858 : 0000;
  859 : 0000;
  85A : 0000;
  85B : 0000;
  85C : 0000;
  85D : 0000;
  85E : 0000;
  85F : 0000;
  860 : 0000;
  861 : 0000;
  862 : 0000;
  863 : 0000;
  864 : 0000;
  865 : 59E7;
  866 : 5147;
  867 : 51E9;
  868 : 5A09;
  869 : 620A;
  86A : 5A0A;
  86B : 5A0A;
  86C : 5A0A;
  86D : 5A0A;
  86E : 5A0A;
  86F : 5A0A;
  870 : 5A0A;
  871 : 5A0A;
  872 : 5A0A;
  873 : 5A0A;
  874 : 5A0A;
  875 : 5A0A;
  876 : 5A0A;
  877 : 5A0A;
  878 : 5A0A;
  879 : 622A;
  87A : 5A09;
  87B : 5147;
  87C : 51E7;
  87D : 39E7;
  87E : 0000;
  87F : 0000;
  880 : 0000;
  881 : 0000;
  882 : 0000;
  883 : 0000;
  884 : 0000;
  885 : 0000;
  886 : 0000;
  887 : 0000;
  888 : 0000;
  889 : 0000;
  88A : 0000;
  88B : 0000;
  88C : 0000;
  88D : 0000;
  88E : 0000;
  88F : 0000;
  890 : 5968;
  891 : 5147;
  892 : 59E9;
  893 : 5A0A;
  894 : 51C9;
  895 : C5F8;
  896 : FFFF;
  897 : FFFF;
  898 : FFDE;
  899 : FFDE;
  89A : FED7;
  89B : FCC7;
  89C : FCE8;
  89D : FD09;
  89E : FD09;
  89F : FD09;
  8A0 : FD09;
  8A1 : FD09;
  8A2 : FD09;
  8A3 : FD09;
  8A4 : FD09;
  8A5 : FD09;
  8A6 : FCE8;
  8A7 : FD4A;
  8A8 : FF9D;
  8A9 : FFDE;
  8AA : FFFF;
  8AB : FFFF;
  8AC : FFFF;
  8AD : 9411;
  8AE : 51A8;
  8AF : 5A09;
  8B0 : 41A8;
  8B1 : 5147;
  8B2 : 3124;
  8B3 : 0000;
  8B4 : 0000;
  8B5 : 0000;
  8B6 : 0000;
  8B7 : 0000;
  8B8 : 0000;
  8B9 : 0000;
  8BA : 0000;
  8BB : 0000;
  8BC : 0000;
  8BD : 0000;
  8BE : 0000;
  8BF : 0000;
  8C0 : 0000;
  8C1 : 0000;
  8C2 : 0000;
  8C3 : 0000;
  8C4 : 0000;
  8C5 : 0000;
  8C6 : 0000;
  8C7 : 0000;
  8C8 : 0000;
  8C9 : 0000;
  8CA : 2124;
  8CB : 49A6;
  8CC : 5147;
  8CD : 5A09;
  8CE : 622A;
  8CF : 5A0A;
  8D0 : 5A0A;
  8D1 : 5A0A;
  8D2 : 5A0A;
  8D3 : 5A0A;
  8D4 : 5A0A;
  8D5 : 5A0A;
  8D6 : 5A0A;
  8D7 : 5A0A;
  8D8 : 5A0A;
  8D9 : 5A0A;
  8DA : 5A0A;
  8DB : 5A0A;
  8DC : 5A0A;
  8DD : 5A0A;
  8DE : 620A;
  8DF : 5A09;
  8E0 : 49C8;
  8E1 : 5147;
  8E2 : 4165;
  8E3 : 0000;
  8E4 : 0000;
  8E5 : 0000;
  8E6 : 0000;
  8E7 : 0000;
  8E8 : 0000;
  8E9 : 0000;
  8EA : 0000;
  8EB : 0000;
  8EC : 0000;
  8ED : 0000;
  8EE : 0000;
  8EF : 0000;
  8F0 : 0000;
  8F1 : 0000;
  8F2 : 0000;
  8F3 : 0000;
  8F4 : 0000;
  8F5 : 0000;
  8F6 : 0000;
  8F7 : 0000;
  8F8 : 0000;
  8F9 : 0000;
  8FA : 0000;
  8FB : 0000;
  8FC : 0000;
  8FD : 0000;
  8FE : 0000;
  8FF : 0000;
  900 : 51C8;
  901 : 4147;
  902 : 8BB0;
  903 : DE9A;
  904 : DE9A;
  905 : F79E;
  906 : FFFF;
  907 : FFDE;
  908 : FDCF;
  909 : FD8D;
  90A : FD6C;
  90B : FCE8;
  90C : FD09;
  90D : FD09;
  90E : FD09;
  90F : FD09;
  910 : FD09;
  911 : FD09;
  912 : FD09;
  913 : FD09;
  914 : FD09;
  915 : FD09;
  916 : FD09;
  917 : FD09;
  918 : FD09;
  919 : FD09;
  91A : FD09;
  91B : FCE8;
  91C : FCC7;
  91D : FEF8;
  91E : FFFF;
  91F : F77E;
  920 : 624A;
  921 : 5188;
  922 : 51C8;
  923 : 0000;
  924 : 0000;
  925 : 0000;
  926 : 0000;
  927 : 0000;
  928 : 0000;
  929 : 0000;
  92A : 0000;
  92B : 0000;
  92C : 0000;
  92D : 0000;
  92E : 0000;
  92F : 0000;
  930 : 0000;
  931 : 0000;
  932 : 0000;
  933 : 0000;
  934 : 0000;
  935 : 0000;
  936 : 0000;
  937 : 0000;
  938 : 0000;
  939 : 0000;
  93A : 0000;
  93B : 0000;
  93C : 0000;
  93D : 0000;
  93E : 0000;
  93F : 0000;
  940 : 0000;
  941 : 0000;
  942 : 0000;
  943 : 0000;
  944 : 0000;
  945 : 0000;
  946 : 0000;
  947 : 0000;
  948 : 0000;
  949 : 0000;
  94A : 0000;
  94B : 0000;
  94C : 0000;
  94D : 0000;
  94E : 0000;
  94F : 0000;
  950 : 0000;
  951 : 0000;
  952 : 0000;
  953 : 0000;
  954 : 0000;
  955 : 0000;
  956 : 0000;
  957 : 0000;
  958 : 0000;
  959 : 0000;
  95A : 0000;
  95B : 0000;
  95C : 0000;
  95D : 0000;
  95E : 0000;
  95F : 0000;
  960 : 0000;
  961 : 0000;
  962 : 0000;
  963 : 0000;
  964 : 0000;
  965 : 51C8;
  966 : 5188;
  967 : 624A;
  968 : D659;
  969 : DEBA;
  96A : DE9A;
  96B : DE9A;
  96C : DE9A;
  96D : DE9A;
  96E : DE9A;
  96F : DE9A;
  970 : DE9A;
  971 : DE9A;
  972 : DE9A;
  973 : DE9A;
  974 : DE9A;
  975 : DE9A;
  976 : DE9A;
  977 : DE9A;
  978 : DE9A;
  979 : DEBB;
  97A : B535;
  97B : 4967;
  97C : 51C9;
  97D : 51A9;
  97E : 0000;
  97F : 0000;
  980 : 0000;
  981 : 0000;
  982 : 0000;
  983 : 0000;
  984 : 0000;
  985 : 0000;
  986 : 0000;
  987 : 0000;
  988 : 0000;
  989 : 0000;
  98A : 0000;
  98B : 0000;
  98C : 0000;
  98D : 0000;
  98E : 0000;
  98F : 49E9;
  990 : 51A8;
  991 : 4947;
  992 : 8BB0;
  993 : DE9A;
  994 : DE9A;
  995 : F79E;
  996 : FFFF;
  997 : FFDE;
  998 : FDCF;
  999 : FD8D;
  99A : FD6C;
  99B : FCE8;
  99C : FD09;
  99D : FD09;
  99E : FD09;
  99F : FD09;
  9A0 : FD09;
  9A1 : FD09;
  9A2 : FD09;
  9A3 : FD09;
  9A4 : FD09;
  9A5 : FD09;
  9A6 : FCE8;
  9A7 : FD09;
  9A8 : FD8D;
  9A9 : FD6C;
  9AA : FE74;
  9AB : FFFF;
  9AC : FFFF;
  9AD : E71C;
  9AE : D69A;
  9AF : D659;
  9B0 : 624A;
  9B1 : 5188;
  9B2 : 51A8;
  9B3 : 0000;
  9B4 : 0000;
  9B5 : 0000;
  9B6 : 0000;
  9B7 : 0000;
  9B8 : 0000;
  9B9 : 0000;
  9BA : 0000;
  9BB : 0000;
  9BC : 0000;
  9BD : 0000;
  9BE : 0000;
  9BF : 0000;
  9C0 : 0000;
  9C1 : 0000;
  9C2 : 0000;
  9C3 : 0000;
  9C4 : 0000;
  9C5 : 0000;
  9C6 : 0000;
  9C7 : 0000;
  9C8 : 0000;
  9C9 : 0000;
  9CA : 51A8;
  9CB : 51C9;
  9CC : 4967;
  9CD : B535;
  9CE : DEBB;
  9CF : DE9A;
  9D0 : DE9A;
  9D1 : DE9A;
  9D2 : DE9A;
  9D3 : DE9A;
  9D4 : DE9A;
  9D5 : DE9A;
  9D6 : DE9A;
  9D7 : DE9A;
  9D8 : DE9A;
  9D9 : DE9A;
  9DA : DE9A;
  9DB : DE9A;
  9DC : DE9A;
  9DD : DE9A;
  9DE : DEBA;
  9DF : D659;
  9E0 : 624A;
  9E1 : 5188;
  9E2 : 51A8;
  9E3 : 0000;
  9E4 : 0000;
  9E5 : 0000;
  9E6 : 0000;
  9E7 : 0000;
  9E8 : 0000;
  9E9 : 0000;
  9EA : 0000;
  9EB : 0000;
  9EC : 0000;
  9ED : 0000;
  9EE : 0000;
  9EF : 0000;
  9F0 : 0000;
  9F1 : 0000;
  9F2 : 0000;
  9F3 : 0000;
  9F4 : 0000;
  9F5 : 0000;
  9F6 : 0000;
  9F7 : 0000;
  9F8 : 0000;
  9F9 : 0000;
  9FA : 0000;
  9FB : 0000;
  9FC : 0000;
  9FD : 0000;
  9FE : 0000;
  9FF : 0000;
  A00 : 59E9;
  A01 : 4967;
  A02 : 9431;
  A03 : FFFF;
  A04 : FFFF;
  A05 : FFFF;
  A06 : FFFF;
  A07 : FFDE;
  A08 : FD09;
  A09 : FCA6;
  A0A : FCE7;
  A0B : FD09;
  A0C : FD09;
  A0D : FD09;
  A0E : FD09;
  A0F : FD09;
  A10 : FD09;
  A11 : FD09;
  A12 : FD09;
  A13 : FD09;
  A14 : FD09;
  A15 : FD09;
  A16 : FD09;
  A17 : FD09;
  A18 : FD09;
  A19 : FD09;
  A1A : FD09;
  A1B : FCE8;
  A1C : FCC7;
  A1D : FEF8;
  A1E : FFFF;
  A1F : F77E;
  A20 : 624A;
  A21 : 5188;
  A22 : 51C8;
  A23 : 0000;
  A24 : 0000;
  A25 : 0000;
  A26 : 0000;
  A27 : 0000;
  A28 : 0000;
  A29 : 0000;
  A2A : 0000;
  A2B : 0000;
  A2C : 0000;
  A2D : 0000;
  A2E : 0000;
  A2F : 0000;
  A30 : 0000;
  A31 : 0000;
  A32 : 0000;
  A33 : 0000;
  A34 : 0000;
  A35 : 0000;
  A36 : 0000;
  A37 : 0000;
  A38 : 0000;
  A39 : 0000;
  A3A : 0000;
  A3B : 0000;
  A3C : 0000;
  A3D : 0000;
  A3E : 0000;
  A3F : 0000;
  A40 : 0000;
  A41 : 0000;
  A42 : 0000;
  A43 : 0000;
  A44 : 0000;
  A45 : 0000;
  A46 : 0000;
  A47 : 0000;
  A48 : 0000;
  A49 : 0000;
  A4A : 0000;
  A4B : 0000;
  A4C : 0000;
  A4D : 0000;
  A4E : 0000;
  A4F : 0000;
  A50 : 0000;
  A51 : 0000;
  A52 : 0000;
  A53 : 0000;
  A54 : 0000;
  A55 : 0000;
  A56 : 0000;
  A57 : 0000;
  A58 : 0000;
  A59 : 0000;
  A5A : 0000;
  A5B : 0000;
  A5C : 0000;
  A5D : 0000;
  A5E : 0000;
  A5F : 0000;
  A60 : 0000;
  A61 : 0000;
  A62 : 0000;
  A63 : 0000;
  A64 : 0000;
  A65 : 4987;
  A66 : 5168;
  A67 : 622A;
  A68 : FFDF;
  A69 : FFFF;
  A6A : FFFF;
  A6B : FFFF;
  A6C : FFFF;
  A6D : FFFF;
  A6E : FFFF;
  A6F : FFFF;
  A70 : FFFF;
  A71 : FFFF;
  A72 : FFFF;
  A73 : FFFF;
  A74 : FFFF;
  A75 : FFFF;
  A76 : FFFF;
  A77 : FFFF;
  A78 : FFFF;
  A79 : FFFF;
  A7A : CE18;
  A7B : 4947;
  A7C : 51A8;
  A7D : 4948;
  A7E : 0000;
  A7F : 0000;
  A80 : 0000;
  A81 : 0000;
  A82 : 0000;
  A83 : 0000;
  A84 : 0000;
  A85 : 0000;
  A86 : 0000;
  A87 : 0000;
  A88 : 0000;
  A89 : 0000;
  A8A : 0000;
  A8B : 0000;
  A8C : 0000;
  A8D : 0000;
  A8E : 0000;
  A8F : 59A8;
  A90 : 51A8;
  A91 : 5168;
  A92 : 9431;
  A93 : FFFF;
  A94 : FFFF;
  A95 : FFFF;
  A96 : FFFF;
  A97 : FFDE;
  A98 : FD09;
  A99 : FCA6;
  A9A : FCE7;
  A9B : FD09;
  A9C : FD09;
  A9D : FD09;
  A9E : FD09;
  A9F : FD09;
  AA0 : FD09;
  AA1 : FD09;
  AA2 : FD09;
  AA3 : FD09;
  AA4 : FD09;
  AA5 : FD09;
  AA6 : FD09;
  AA7 : FCE8;
  AA8 : FCC7;
  AA9 : FC85;
  AAA : FDF0;
  AAB : FFFF;
  AAC : FFFF;
  AAD : FFFF;
  AAE : FFFF;
  AAF : FFFF;
  AB0 : 6A6B;
  AB1 : 59A9;
  AB2 : 51A8;
  AB3 : 0000;
  AB4 : 0000;
  AB5 : 0000;
  AB6 : 0000;
  AB7 : 0000;
  AB8 : 0000;
  AB9 : 0000;
  ABA : 0000;
  ABB : 0000;
  ABC : 0000;
  ABD : 0000;
  ABE : 0000;
  ABF : 0000;
  AC0 : 0000;
  AC1 : 0000;
  AC2 : 0000;
  AC3 : 0000;
  AC4 : 0000;
  AC5 : 0000;
  AC6 : 0000;
  AC7 : 0000;
  AC8 : 0000;
  AC9 : 0000;
  ACA : 4947;
  ACB : 51A8;
  ACC : 4947;
  ACD : CE18;
  ACE : FFFF;
  ACF : FFFF;
  AD0 : FFFF;
  AD1 : FFFF;
  AD2 : FFFF;
  AD3 : FFFF;
  AD4 : FFFF;
  AD5 : FFFF;
  AD6 : FFFF;
  AD7 : FFFF;
  AD8 : FFFF;
  AD9 : FFFF;
  ADA : FFFF;
  ADB : FFFF;
  ADC : FFFF;
  ADD : FFFF;
  ADE : FFFF;
  ADF : FFDF;
  AE0 : 622A;
  AE1 : 5168;
  AE2 : 4967;
  AE3 : 0000;
  AE4 : 0000;
  AE5 : 0000;
  AE6 : 0000;
  AE7 : 0000;
  AE8 : 0000;
  AE9 : 0000;
  AEA : 0000;
  AEB : 0000;
  AEC : 0000;
  AED : 0000;
  AEE : 0000;
  AEF : 0000;
  AF0 : 0000;
  AF1 : 0000;
  AF2 : 0000;
  AF3 : 0000;
  AF4 : 0000;
  AF5 : 0000;
  AF6 : 0000;
  AF7 : 0000;
  AF8 : 0000;
  AF9 : 0000;
  AFA : 0000;
  AFB : 0000;
  AFC : 0000;
  AFD : 0000;
  AFE : 0000;
  AFF : 0000;
  B00 : 51C8;
  B01 : 4947;
  B02 : 8BF0;
  B03 : FFFF;
  B04 : FFFF;
  B05 : FFFF;
  B06 : FFFF;
  B07 : FFBD;
  B08 : FD4A;
  B09 : FCE8;
  B0A : FD09;
  B0B : FD09;
  B0C : FD09;
  B0D : FD09;
  B0E : FD09;
  B0F : FD09;
  B10 : FD09;
  B11 : FD09;
  B12 : FD09;
  B13 : FD09;
  B14 : FD09;
  B15 : FD09;
  B16 : FD09;
  B17 : FD09;
  B18 : FD09;
  B19 : FD09;
  B1A : FD09;
  B1B : FCE8;
  B1C : FCC7;
  B1D : FEF8;
  B1E : FFFF;
  B1F : F77E;
  B20 : 624A;
  B21 : 5188;
  B22 : 51C8;
  B23 : 4929;
  B24 : 4929;
  B25 : 4929;
  B26 : 4929;
  B27 : 4929;
  B28 : 4929;
  B29 : 4929;
  B2A : 4929;
  B2B : 4929;
  B2C : 4929;
  B2D : 4929;
  B2E : 4929;
  B2F : 4929;
  B30 : 4929;
  B31 : 4929;
  B32 : 4929;
  B33 : 4929;
  B34 : 4929;
  B35 : 4929;
  B36 : 4929;
  B37 : 4929;
  B38 : 4929;
  B39 : 4929;
  B3A : 4929;
  B3B : 4929;
  B3C : 4929;
  B3D : 4929;
  B3E : 4929;
  B3F : 4929;
  B40 : 4929;
  B41 : 4929;
  B42 : 4929;
  B43 : 4929;
  B44 : 4929;
  B45 : 4929;
  B46 : 4929;
  B47 : 4929;
  B48 : 4929;
  B49 : 4929;
  B4A : 4929;
  B4B : 4929;
  B4C : 4929;
  B4D : 4929;
  B4E : 4929;
  B4F : 4929;
  B50 : 4929;
  B51 : 4929;
  B52 : 4929;
  B53 : 4929;
  B54 : 4929;
  B55 : 4929;
  B56 : 4929;
  B57 : 4929;
  B58 : 4929;
  B59 : 4929;
  B5A : 4929;
  B5B : 4929;
  B5C : 4929;
  B5D : 4929;
  B5E : 4929;
  B5F : 4929;
  B60 : 4929;
  B61 : 4929;
  B62 : 4929;
  B63 : 4929;
  B64 : 4929;
  B65 : 59E9;
  B66 : 59C9;
  B67 : 626B;
  B68 : F77E;
  B69 : FFFF;
  B6A : FFFF;
  B6B : FFFF;
  B6C : FFFF;
  B6D : FFFF;
  B6E : FFFF;
  B6F : FFFF;
  B70 : FFFF;
  B71 : FFFF;
  B72 : FFFF;
  B73 : FFFF;
  B74 : FFFF;
  B75 : FFFF;
  B76 : FFFF;
  B77 : FFFF;
  B78 : FFFF;
  B79 : FFFF;
  B7A : C5F8;
  B7B : 51A8;
  B7C : 59E9;
  B7D : 59E9;
  B7E : 4929;
  B7F : 514A;
  B80 : 0000;
  B81 : 0000;
  B82 : 0000;
  B83 : 0000;
  B84 : 0000;
  B85 : 0000;
  B86 : 0000;
  B87 : 0000;
  B88 : 0000;
  B89 : 0000;
  B8A : 0000;
  B8B : 0000;
  B8C : 0000;
  B8D : 0000;
  B8E : 0000;
  B8F : 51E9;
  B90 : 51A8;
  B91 : 4967;
  B92 : 8BF0;
  B93 : FFFF;
  B94 : FFFF;
  B95 : FFFF;
  B96 : FFFF;
  B97 : FFBD;
  B98 : FD4A;
  B99 : FCE8;
  B9A : FD09;
  B9B : FD09;
  B9C : FD09;
  B9D : FD09;
  B9E : FD09;
  B9F : FD09;
  BA0 : FD09;
  BA1 : FD09;
  BA2 : FD09;
  BA3 : FD09;
  BA4 : FD09;
  BA5 : FD09;
  BA6 : FD09;
  BA7 : FD09;
  BA8 : FD09;
  BA9 : FCC7;
  BAA : FE10;
  BAB : FFFF;
  BAC : FFFF;
  BAD : FFFF;
  BAE : FFFF;
  BAF : F77E;
  BB0 : 624A;
  BB1 : 5188;
  BB2 : 51C8;
  BB3 : 4929;
  BB4 : 2084;
  BB5 : 2084;
  BB6 : 28A5;
  BB7 : 28A5;
  BB8 : 28A5;
  BB9 : 28A5;
  BBA : 28A5;
  BBB : 30C6;
  BBC : 30C6;
  BBD : 30C6;
  BBE : 30C6;
  BBF : 30C6;
  BC0 : 30C6;
  BC1 : 30C6;
  BC2 : 30C6;
  BC3 : 28A5;
  BC4 : 28A5;
  BC5 : 28A5;
  BC6 : 28A5;
  BC7 : 28A5;
  BC8 : 2084;
  BC9 : 4929;
  BCA : 51C9;
  BCB : 59E9;
  BCC : 51A8;
  BCD : C5F8;
  BCE : FFFF;
  BCF : FFFF;
  BD0 : FFFF;
  BD1 : FFFF;
  BD2 : FFFF;
  BD3 : FFFF;
  BD4 : FFFF;
  BD5 : FFFF;
  BD6 : FFFF;
  BD7 : FFFF;
  BD8 : FFFF;
  BD9 : FFFF;
  BDA : FFFF;
  BDB : FFFF;
  BDC : FFFF;
  BDD : FFFF;
  BDE : FFFF;
  BDF : F77E;
  BE0 : 626B;
  BE1 : 59C9;
  BE2 : 51E9;
  BE3 : 4929;
  BE4 : 2945;
  BE5 : 2124;
  BE6 : 0000;
  BE7 : 0000;
  BE8 : 38E7;
  BE9 : 3186;
  BEA : 30C6;
  BEB : 30C6;
  BEC : 30C6;
  BED : 30C6;
  BEE : 30C6;
  BEF : 30C6;
  BF0 : 30C6;
  BF1 : 30C6;
  BF2 : 30C6;
  BF3 : 30C6;
  BF4 : 30C6;
  BF5 : 30C6;
  BF6 : 30C6;
  BF7 : 30C6;
  BF8 : 30C6;
  BF9 : 30C6;
  BFA : 30C6;
  BFB : 30C6;
  BFC : 30C6;
  BFD : 38E7;
  BFE : 38E7;
  BFF : 38E7;
  C00 : 51C8;
  C01 : 4947;
  C02 : 8BF0;
  C03 : FFFF;
  C04 : FFFF;
  C05 : FE94;
  C06 : FD8D;
  C07 : FDAE;
  C08 : FD09;
  C09 : FCE8;
  C0A : FD09;
  C0B : FD09;
  C0C : FD09;
  C0D : FD09;
  C0E : FD09;
  C0F : FD09;
  C10 : FD09;
  C11 : FD09;
  C12 : FD09;
  C13 : FD09;
  C14 : FD09;
  C15 : FD09;
  C16 : FD09;
  C17 : FD09;
  C18 : FD09;
  C19 : FD09;
  C1A : FD09;
  C1B : FCE8;
  C1C : FCC7;
  C1D : FEF8;
  C1E : FFFF;
  C1F : F77E;
  C20 : 624A;
  C21 : 4988;
  C22 : 51A8;
  C23 : 51C8;
  C24 : 51C8;
  C25 : 51C8;
  C26 : 51C8;
  C27 : 51C8;
  C28 : 51C8;
  C29 : 51C8;
  C2A : 51C8;
  C2B : 51C8;
  C2C : 51C8;
  C2D : 51C8;
  C2E : 51C8;
  C2F : 51C8;
  C30 : 51C8;
  C31 : 51C8;
  C32 : 51C8;
  C33 : 51C8;
  C34 : 51C8;
  C35 : 51C8;
  C36 : 51C8;
  C37 : 51C8;
  C38 : 51C8;
  C39 : 51C8;
  C3A : 51C8;
  C3B : 51C8;
  C3C : 51C8;
  C3D : 51C8;
  C3E : 51C8;
  C3F : 51C8;
  C40 : 51C8;
  C41 : 51C8;
  C42 : 51C8;
  C43 : 51C8;
  C44 : 51C8;
  C45 : 51C8;
  C46 : 51C8;
  C47 : 51C8;
  C48 : 51C8;
  C49 : 51C8;
  C4A : 51C8;
  C4B : 51C8;
  C4C : 51C8;
  C4D : 51C8;
  C4E : 51C8;
  C4F : 51C8;
  C50 : 51C8;
  C51 : 51C8;
  C52 : 51C8;
  C53 : 51C8;
  C54 : 51C8;
  C55 : 51C8;
  C56 : 51C8;
  C57 : 51C8;
  C58 : 51C8;
  C59 : 51C8;
  C5A : 51C8;
  C5B : 51C8;
  C5C : 51C8;
  C5D : 51C8;
  C5E : 51C8;
  C5F : 51C8;
  C60 : 51C8;
  C61 : 51C8;
  C62 : 51C8;
  C63 : 51A8;
  C64 : 4967;
  C65 : AD15;
  C66 : D659;
  C67 : D69A;
  C68 : FFDF;
  C69 : FFFF;
  C6A : FF3A;
  C6B : FDAE;
  C6C : FDAE;
  C6D : FDCE;
  C6E : FDCE;
  C6F : FDCE;
  C70 : FDCE;
  C71 : FDCE;
  C72 : FDCE;
  C73 : FDCE;
  C74 : FDCE;
  C75 : FDCE;
  C76 : FDAE;
  C77 : FDF0;
  C78 : FFDE;
  C79 : FFFF;
  C7A : F77D;
  C7B : D659;
  C7C : D67A;
  C7D : 8BB0;
  C7E : 4967;
  C7F : 51A8;
  C80 : 49E7;
  C81 : 0000;
  C82 : 0000;
  C83 : 0000;
  C84 : 0000;
  C85 : 0000;
  C86 : 0000;
  C87 : 0000;
  C88 : 0000;
  C89 : 0000;
  C8A : 0000;
  C8B : 0000;
  C8C : 0000;
  C8D : 0000;
  C8E : 0000;
  C8F : 51E9;
  C90 : 51A8;
  C91 : 4967;
  C92 : 8BF0;
  C93 : FFFF;
  C94 : FFFF;
  C95 : FE94;
  C96 : FD8D;
  C97 : FDAE;
  C98 : FD09;
  C99 : FCE8;
  C9A : FD09;
  C9B : FD09;
  C9C : FD09;
  C9D : FD09;
  C9E : FD09;
  C9F : FD09;
  CA0 : FD09;
  CA1 : FD09;
  CA2 : FD09;
  CA3 : FD09;
  CA4 : FD09;
  CA5 : FD09;
  CA6 : FD09;
  CA7 : FD09;
  CA8 : FD09;
  CA9 : FCE8;
  CAA : FD4B;
  CAB : FDAE;
  CAC : FDAE;
  CAD : FF3A;
  CAE : FFFF;
  CAF : F77E;
  CB0 : 624A;
  CB1 : 4988;
  CB2 : 51A8;
  CB3 : 51C8;
  CB4 : 51A8;
  CB5 : 51A8;
  CB6 : 51A8;
  CB7 : 51A8;
  CB8 : 51C8;
  CB9 : 51C8;
  CBA : 51C8;
  CBB : 51C8;
  CBC : 51C8;
  CBD : 51C8;
  CBE : 51C8;
  CBF : 51C8;
  CC0 : 51C8;
  CC1 : 51C8;
  CC2 : 51C8;
  CC3 : 51C8;
  CC4 : 51C8;
  CC5 : 51A8;
  CC6 : 51A8;
  CC7 : 51A8;
  CC8 : 51A8;
  CC9 : 4147;
  CCA : 83AF;
  CCB : D67A;
  CCC : D659;
  CCD : F77D;
  CCE : FFFF;
  CCF : FFDE;
  CD0 : FDF0;
  CD1 : FDAE;
  CD2 : FDCE;
  CD3 : FDCE;
  CD4 : FDCE;
  CD5 : FDCE;
  CD6 : FDCE;
  CD7 : FDCE;
  CD8 : FDCE;
  CD9 : FDCE;
  CDA : FDCE;
  CDB : FDAE;
  CDC : FDAE;
  CDD : FF3A;
  CDE : FFFF;
  CDF : FFDF;
  CE0 : D69A;
  CE1 : D659;
  CE2 : AD15;
  CE3 : 4967;
  CE4 : 51A8;
  CE5 : 4988;
  CE6 : 0000;
  CE7 : 3145;
  CE8 : 51A8;
  CE9 : 59C9;
  CEA : 51C8;
  CEB : 51C8;
  CEC : 51C8;
  CED : 51C8;
  CEE : 51C8;
  CEF : 51C8;
  CF0 : 51C8;
  CF1 : 51C8;
  CF2 : 51C8;
  CF3 : 51C8;
  CF4 : 51C8;
  CF5 : 51C8;
  CF6 : 51C8;
  CF7 : 51C8;
  CF8 : 51C8;
  CF9 : 51C8;
  CFA : 51C8;
  CFB : 51C8;
  CFC : 51C8;
  CFD : 51C8;
  CFE : 51C8;
  CFF : 51C8;
  D00 : 51C8;
  D01 : 4947;
  D02 : 8BF0;
  D03 : FFFF;
  D04 : FFFF;
  D05 : FDEF;
  D06 : FC85;
  D07 : FCC7;
  D08 : FCE8;
  D09 : FD09;
  D0A : FD09;
  D0B : FD09;
  D0C : FD09;
  D0D : FD09;
  D0E : FD09;
  D0F : FD09;
  D10 : FD09;
  D11 : FD09;
  D12 : FD09;
  D13 : FD09;
  D14 : FD09;
  D15 : FD09;
  D16 : FD09;
  D17 : FD09;
  D18 : FD09;
  D19 : FD09;
  D1A : FD09;
  D1B : FD09;
  D1C : FCE8;
  D1D : FEF8;
  D1E : FFFF;
  D1F : F77E;
  D20 : 624A;
  D21 : 4967;
  D22 : 51A8;
  D23 : 51A8;
  D24 : 51A8;
  D25 : 51A8;
  D26 : 51A8;
  D27 : 51A8;
  D28 : 51A8;
  D29 : 51A8;
  D2A : 51A8;
  D2B : 51A8;
  D2C : 51A8;
  D2D : 51A8;
  D2E : 51A8;
  D2F : 51A8;
  D30 : 51A8;
  D31 : 51A8;
  D32 : 51A8;
  D33 : 51A8;
  D34 : 51A8;
  D35 : 51A8;
  D36 : 51A8;
  D37 : 51A8;
  D38 : 51A8;
  D39 : 51A8;
  D3A : 51A8;
  D3B : 51A8;
  D3C : 51A8;
  D3D : 51A8;
  D3E : 51A8;
  D3F : 51A8;
  D40 : 51A8;
  D41 : 51A8;
  D42 : 51A8;
  D43 : 51A8;
  D44 : 51A8;
  D45 : 51A8;
  D46 : 51A8;
  D47 : 51A8;
  D48 : 51A8;
  D49 : 51A8;
  D4A : 51A8;
  D4B : 51A8;
  D4C : 51A8;
  D4D : 51A8;
  D4E : 51A8;
  D4F : 51A8;
  D50 : 51A8;
  D51 : 51A8;
  D52 : 51A8;
  D53 : 51A8;
  D54 : 51A8;
  D55 : 51A8;
  D56 : 51A8;
  D57 : 51A8;
  D58 : 51A8;
  D59 : 51A8;
  D5A : 51A8;
  D5B : 51A8;
  D5C : 51A8;
  D5D : 51A8;
  D5E : 51A8;
  D5F : 51A8;
  D60 : 59C9;
  D61 : 59E9;
  D62 : 59E9;
  D63 : 59C9;
  D64 : 5188;
  D65 : CE39;
  D66 : FFFF;
  D67 : FFFF;
  D68 : FFFF;
  D69 : FFFF;
  D6A : FEF8;
  D6B : FC86;
  D6C : FCC7;
  D6D : FCC7;
  D6E : FCC7;
  D6F : FCC7;
  D70 : FCC7;
  D71 : FCC7;
  D72 : FCC7;
  D73 : FCC7;
  D74 : FCC7;
  D75 : FCC7;
  D76 : FCA6;
  D77 : FD09;
  D78 : FFDE;
  D79 : FFFF;
  D7A : FFFF;
  D7B : FFFF;
  D7C : FFFF;
  D7D : 9431;
  D7E : 5168;
  D7F : 51A8;
  D80 : 59A8;
  D81 : 0000;
  D82 : 0000;
  D83 : 0000;
  D84 : 0000;
  D85 : 0000;
  D86 : 0000;
  D87 : 0000;
  D88 : 0000;
  D89 : 0000;
  D8A : 0000;
  D8B : 0000;
  D8C : 0000;
  D8D : 0000;
  D8E : 0000;
  D8F : 51E9;
  D90 : 51A8;
  D91 : 4967;
  D92 : 8BF0;
  D93 : FFFF;
  D94 : FFFF;
  D95 : FDEF;
  D96 : FC85;
  D97 : FCC7;
  D98 : FCE8;
  D99 : FD09;
  D9A : FD09;
  D9B : FD09;
  D9C : FD09;
  D9D : FD09;
  D9E : FD09;
  D9F : FD09;
  DA0 : FD09;
  DA1 : FD09;
  DA2 : FD09;
  DA3 : FD09;
  DA4 : FD09;
  DA5 : FD09;
  DA6 : FD09;
  DA7 : FD09;
  DA8 : FD09;
  DA9 : FD09;
  DAA : FCE8;
  DAB : FCC7;
  DAC : FCA6;
  DAD : FEF7;
  DAE : FFFF;
  DAF : F77D;
  DB0 : 5A09;
  DB1 : 4126;
  DB2 : 4988;
  DB3 : 51A8;
  DB4 : 51A8;
  DB5 : 51A8;
  DB6 : 51A8;
  DB7 : 51A8;
  DB8 : 51A8;
  DB9 : 51A8;
  DBA : 51A8;
  DBB : 51A8;
  DBC : 51A8;
  DBD : 51A8;
  DBE : 51A8;
  DBF : 51A8;
  DC0 : 51A8;
  DC1 : 51A8;
  DC2 : 51A8;
  DC3 : 51A8;
  DC4 : 51A8;
  DC5 : 51A8;
  DC6 : 51A8;
  DC7 : 51A8;
  DC8 : 51A8;
  DC9 : 4106;
  DCA : 93F1;
  DCB : FFFF;
  DCC : FFFF;
  DCD : FFFF;
  DCE : FFFF;
  DCF : FFDE;
  DD0 : FD09;
  DD1 : FCA6;
  DD2 : FCC7;
  DD3 : FCC7;
  DD4 : FCC7;
  DD5 : FCC7;
  DD6 : FCC7;
  DD7 : FCC7;
  DD8 : FCC7;
  DD9 : FCC7;
  DDA : FCC7;
  DDB : FCC7;
  DDC : FC86;
  DDD : FEF8;
  DDE : FFFF;
  DDF : FFFF;
  DE0 : FFFF;
  DE1 : FFFF;
  DE2 : CE39;
  DE3 : 5188;
  DE4 : 59E9;
  DE5 : 4988;
  DE6 : 0000;
  DE7 : 28E3;
  DE8 : 4968;
  DE9 : 59A9;
  DEA : 51A8;
  DEB : 51A8;
  DEC : 51A8;
  DED : 51A8;
  DEE : 51A8;
  DEF : 51A8;
  DF0 : 51A8;
  DF1 : 51A8;
  DF2 : 51A8;
  DF3 : 51A8;
  DF4 : 51A8;
  DF5 : 51A8;
  DF6 : 51A8;
  DF7 : 51A8;
  DF8 : 51A8;
  DF9 : 51A8;
  DFA : 51A8;
  DFB : 51A8;
  DFC : 51A8;
  DFD : 59C9;
  DFE : 59E9;
  DFF : 59E9;
  E00 : 51C8;
  E01 : 4947;
  E02 : 8BF0;
  E03 : FFFF;
  E04 : FFFF;
  E05 : FE10;
  E06 : FCC7;
  E07 : FD09;
  E08 : FD09;
  E09 : FD09;
  E0A : FD09;
  E0B : FD09;
  E0C : FD09;
  E0D : FD09;
  E0E : FD09;
  E0F : FD09;
  E10 : FD09;
  E11 : FCE9;
  E12 : FCE9;
  E13 : FCE9;
  E14 : FCE9;
  E15 : FCE9;
  E16 : FCE9;
  E17 : FCE9;
  E18 : FCE9;
  E19 : FCE9;
  E1A : FCE9;
  E1B : FCE8;
  E1C : FCC7;
  E1D : FEF8;
  E1E : FFFF;
  E1F : F77E;
  E20 : 624A;
  E21 : 4967;
  E22 : 51C9;
  E23 : 51C9;
  E24 : 51C9;
  E25 : 51C9;
  E26 : 51C9;
  E27 : 51C9;
  E28 : 51C9;
  E29 : 51C9;
  E2A : 51C9;
  E2B : 51C9;
  E2C : 51C9;
  E2D : 51C9;
  E2E : 51C9;
  E2F : 51C9;
  E30 : 51C9;
  E31 : 51C9;
  E32 : 51C9;
  E33 : 51C9;
  E34 : 51C9;
  E35 : 51C9;
  E36 : 51C9;
  E37 : 51C9;
  E38 : 51C9;
  E39 : 51C9;
  E3A : 51C9;
  E3B : 51C9;
  E3C : 51C9;
  E3D : 51C9;
  E3E : 51C9;
  E3F : 51C9;
  E40 : 51C9;
  E41 : 51C9;
  E42 : 51C9;
  E43 : 51C9;
  E44 : 51C9;
  E45 : 51C9;
  E46 : 51C9;
  E47 : 51C9;
  E48 : 51C9;
  E49 : 51C9;
  E4A : 51C9;
  E4B : 51C9;
  E4C : 51C9;
  E4D : 51C9;
  E4E : 51C9;
  E4F : 51C9;
  E50 : 51C9;
  E51 : 51C9;
  E52 : 51C9;
  E53 : 51C9;
  E54 : 51C9;
  E55 : 51C9;
  E56 : 51C9;
  E57 : 51C9;
  E58 : 51C9;
  E59 : 51C9;
  E5A : 51C9;
  E5B : 51C9;
  E5C : 51C9;
  E5D : 51C9;
  E5E : 51C9;
  E5F : 51C9;
  E60 : 51C8;
  E61 : 51C8;
  E62 : 51C8;
  E63 : 51A8;
  E64 : 4967;
  E65 : C5D7;
  E66 : FFFF;
  E67 : FFFF;
  E68 : FFFF;
  E69 : FFFF;
  E6A : FEF7;
  E6B : FCC7;
  E6C : FCE8;
  E6D : FD09;
  E6E : FD09;
  E6F : FD09;
  E70 : FD09;
  E71 : FD09;
  E72 : FD09;
  E73 : FD09;
  E74 : FD09;
  E75 : FD09;
  E76 : FCE8;
  E77 : FD4A;
  E78 : FFBD;
  E79 : FFFF;
  E7A : FFFF;
  E7B : FFFF;
  E7C : FFFF;
  E7D : 8BF0;
  E7E : 4967;
  E7F : 51A8;
  E80 : 51E9;
  E81 : 0000;
  E82 : 0000;
  E83 : 0000;
  E84 : 0000;
  E85 : 0000;
  E86 : 0000;
  E87 : 0000;
  E88 : 0000;
  E89 : 0000;
  E8A : 0000;
  E8B : 0000;
  E8C : 0000;
  E8D : 0000;
  E8E : 0000;
  E8F : 51E9;
  E90 : 51A8;
  E91 : 4967;
  E92 : 8BF0;
  E93 : FFFF;
  E94 : FFFF;
  E95 : FE10;
  E96 : FCC7;
  E97 : FD09;
  E98 : FD09;
  E99 : FD09;
  E9A : FD09;
  E9B : FD09;
  E9C : FD09;
  E9D : FD09;
  E9E : FD09;
  E9F : FD09;
  EA0 : FD09;
  EA1 : FCE9;
  EA2 : FD09;
  EA3 : FD09;
  EA4 : FD09;
  EA5 : FD09;
  EA6 : FD09;
  EA7 : FD09;
  EA8 : FD09;
  EA9 : FD09;
  EAA : FD09;
  EAB : FCE8;
  EAC : FCC7;
  EAD : FEF8;
  EAE : FFFF;
  EAF : F77E;
  EB0 : 624A;
  EB1 : 4988;
  EB2 : 51C9;
  EB3 : 51C9;
  EB4 : 51C9;
  EB5 : 51C9;
  EB6 : 51C9;
  EB7 : 51C9;
  EB8 : 51C9;
  EB9 : 51C9;
  EBA : 51C9;
  EBB : 51C9;
  EBC : 51C9;
  EBD : 51C9;
  EBE : 51C9;
  EBF : 51C9;
  EC0 : 51C9;
  EC1 : 51C9;
  EC2 : 51C9;
  EC3 : 51C9;
  EC4 : 51C9;
  EC5 : 51C9;
  EC6 : 51C9;
  EC7 : 51C9;
  EC8 : 51C9;
  EC9 : 4947;
  ECA : 93F1;
  ECB : FFFF;
  ECC : FFFF;
  ECD : FFFF;
  ECE : FFFF;
  ECF : FFBD;
  ED0 : FD4A;
  ED1 : FCE8;
  ED2 : FD09;
  ED3 : FD09;
  ED4 : FD09;
  ED5 : FD09;
  ED6 : FD09;
  ED7 : FD09;
  ED8 : FD09;
  ED9 : FD09;
  EDA : FD09;
  EDB : FCE8;
  EDC : FCC7;
  EDD : FEF7;
  EDE : FFFF;
  EDF : FFFF;
  EE0 : FFFF;
  EE1 : FFFF;
  EE2 : C5D7;
  EE3 : 4967;
  EE4 : 51C9;
  EE5 : 4988;
  EE6 : 780F;
  EE7 : 3966;
  EE8 : 51C8;
  EE9 : 59E9;
  EEA : 51C9;
  EEB : 51C9;
  EEC : 51C9;
  EED : 51C9;
  EEE : 51C9;
  EEF : 51C9;
  EF0 : 51C9;
  EF1 : 51C9;
  EF2 : 51C9;
  EF3 : 51C9;
  EF4 : 51C9;
  EF5 : 51C9;
  EF6 : 51C9;
  EF7 : 51C9;
  EF8 : 51C9;
  EF9 : 51C9;
  EFA : 51C9;
  EFB : 51C9;
  EFC : 51C9;
  EFD : 51C9;
  EFE : 51C8;
  EFF : 51C8;
  F00 : 51C8;
  F01 : 4947;
  F02 : 8BF0;
  F03 : FFFF;
  F04 : FFFF;
  F05 : FE10;
  F06 : FCC7;
  F07 : FD09;
  F08 : FD09;
  F09 : FD09;
  F0A : FD09;
  F0B : FD09;
  F0C : FD09;
  F0D : FD09;
  F0E : FD09;
  F0F : FCE8;
  F10 : EBA5;
  F11 : EB84;
  F12 : EB84;
  F13 : EB84;
  F14 : EB84;
  F15 : EB84;
  F16 : EB84;
  F17 : EB84;
  F18 : EB84;
  F19 : EB84;
  F1A : EB84;
  F1B : EB84;
  F1C : EB43;
  F1D : FE76;
  F1E : FFFF;
  F1F : F77E;
  F20 : 624A;
  F21 : 4126;
  F22 : 7B4E;
  F23 : CE39;
  F24 : CE39;
  F25 : CE39;
  F26 : CE39;
  F27 : CE39;
  F28 : CE39;
  F29 : CE39;
  F2A : CE39;
  F2B : CE39;
  F2C : CE39;
  F2D : CE39;
  F2E : CE39;
  F2F : CE39;
  F30 : CE39;
  F31 : CE39;
  F32 : CE39;
  F33 : CE39;
  F34 : CE39;
  F35 : CE39;
  F36 : CE39;
  F37 : CE39;
  F38 : CE39;
  F39 : CE39;
  F3A : CE39;
  F3B : CE39;
  F3C : CE39;
  F3D : CE39;
  F3E : CE39;
  F3F : CE39;
  F40 : CE39;
  F41 : CE39;
  F42 : CE39;
  F43 : CE39;
  F44 : CE39;
  F45 : CE39;
  F46 : CE39;
  F47 : CE39;
  F48 : CE39;
  F49 : CE39;
  F4A : CE39;
  F4B : CE39;
  F4C : CE39;
  F4D : CE39;
  F4E : CE39;
  F4F : CE39;
  F50 : CE39;
  F51 : CE39;
  F52 : CE39;
  F53 : CE39;
  F54 : CE39;
  F55 : CE39;
  F56 : CE39;
  F57 : CE39;
  F58 : CE39;
  F59 : CE39;
  F5A : CE39;
  F5B : CE39;
  F5C : CE39;
  F5D : CE39;
  F5E : CE39;
  F5F : C5D7;
  F60 : 5A2A;
  F61 : 4988;
  F62 : 51C8;
  F63 : 51A8;
  F64 : 4967;
  F65 : C5D7;
  F66 : FFFF;
  F67 : FFDE;
  F68 : FE11;
  F69 : FDCE;
  F6A : FD8D;
  F6B : FCE8;
  F6C : FD09;
  F6D : FD09;
  F6E : FD09;
  F6F : FD09;
  F70 : FD09;
  F71 : FD09;
  F72 : FD09;
  F73 : FD09;
  F74 : FD09;
  F75 : FD09;
  F76 : FCE8;
  F77 : FD09;
  F78 : FDCF;
  F79 : FDAE;
  F7A : FE95;
  F7B : FFFF;
  F7C : FFFF;
  F7D : 8BF0;
  F7E : 4967;
  F7F : 51A8;
  F80 : 51E9;
  F81 : 0000;
  F82 : 0000;
  F83 : 0000;
  F84 : 0000;
  F85 : 0000;
  F86 : 0000;
  F87 : 0000;
  F88 : 0000;
  F89 : 0000;
  F8A : 0000;
  F8B : 0000;
  F8C : 0000;
  F8D : 0000;
  F8E : 0000;
  F8F : 51E9;
  F90 : 51A8;
  F91 : 4967;
  F92 : 8BF0;
  F93 : FFFF;
  F94 : FFFF;
  F95 : FE10;
  F96 : FCC7;
  F97 : FD09;
  F98 : FD09;
  F99 : FD09;
  F9A : FD09;
  F9B : FD09;
  F9C : FD09;
  F9D : FD09;
  F9E : FD09;
  F9F : FCE8;
  FA0 : EBA5;
  FA1 : EB64;
  FA2 : F406;
  FA3 : FD09;
  FA4 : FD09;
  FA5 : FD09;
  FA6 : FD09;
  FA7 : FD09;
  FA8 : FD09;
  FA9 : FD09;
  FAA : FD09;
  FAB : FCE8;
  FAC : FCC7;
  FAD : FEF8;
  FAE : FFFF;
  FAF : FFDF;
  FB0 : D659;
  FB1 : CE18;
  FB2 : CE39;
  FB3 : CE39;
  FB4 : CE39;
  FB5 : CE39;
  FB6 : CE39;
  FB7 : CE39;
  FB8 : CE39;
  FB9 : CE39;
  FBA : CE39;
  FBB : CE39;
  FBC : CE39;
  FBD : CE39;
  FBE : CE39;
  FBF : CE39;
  FC0 : CE39;
  FC1 : CE39;
  FC2 : CE39;
  FC3 : CE39;
  FC4 : CE39;
  FC5 : CE39;
  FC6 : CE39;
  FC7 : CE39;
  FC8 : CE39;
  FC9 : CE18;
  FCA : DEDB;
  FCB : FFFF;
  FCC : FFFF;
  FCD : FE95;
  FCE : FDAE;
  FCF : FDCF;
  FD0 : FD09;
  FD1 : FCE8;
  FD2 : FD09;
  FD3 : FD09;
  FD4 : FD09;
  FD5 : FD09;
  FD6 : FD09;
  FD7 : FD09;
  FD8 : FD09;
  FD9 : FD09;
  FDA : FD09;
  FDB : FD09;
  FDC : FCE8;
  FDD : FD8D;
  FDE : FDCE;
  FDF : FE11;
  FE0 : FFDE;
  FE1 : FFFF;
  FE2 : C5D7;
  FE3 : 4967;
  FE4 : 51C8;
  FE5 : 51A8;
  FE6 : 4967;
  FE7 : 622A;
  FE8 : C5F8;
  FE9 : CE39;
  FEA : CE39;
  FEB : CE39;
  FEC : CE39;
  FED : CE39;
  FEE : CE39;
  FEF : CE39;
  FF0 : CE39;
  FF1 : CE39;
  FF2 : CE39;
  FF3 : CE39;
  FF4 : CE39;
  FF5 : CE39;
  FF6 : CE39;
  FF7 : CE39;
  FF8 : CE39;
  FF9 : CE39;
  FFA : CE39;
  FFB : CE39;
  FFC : CE39;
  FFD : 7B4E;
  FFE : 4967;
  FFF : 51C8;
  1000 : 51C8;
  1001 : 4947;
  1002 : 8BF0;
  1003 : FFFF;
  1004 : FFFF;
  1005 : FE10;
  1006 : FCC7;
  1007 : FD09;
  1008 : FD09;
  1009 : FD09;
  100A : FD09;
  100B : FD09;
  100C : FD09;
  100D : FD09;
  100E : FD09;
  100F : FCC8;
  1010 : E2C2;
  1011 : E281;
  1012 : E2A1;
  1013 : E2A1;
  1014 : E2A1;
  1015 : E2A1;
  1016 : E2A1;
  1017 : E2A1;
  1018 : E2A1;
  1019 : E2A1;
  101A : E2A1;
  101B : E2A1;
  101C : E260;
  101D : F635;
  101E : FFFF;
  101F : F77D;
  1020 : 5A0A;
  1021 : 38C5;
  1022 : 8BF0;
  1023 : FFFF;
  1024 : FFFF;
  1025 : FFFF;
  1026 : FFFF;
  1027 : FFFF;
  1028 : FFFF;
  1029 : FFFF;
  102A : FFFF;
  102B : FFFF;
  102C : FFFF;
  102D : FFFF;
  102E : FFFF;
  102F : FFFF;
  1030 : FFFF;
  1031 : FFFF;
  1032 : FFFF;
  1033 : FFFF;
  1034 : FFFF;
  1035 : FFFF;
  1036 : FFFF;
  1037 : FFFF;
  1038 : FFFF;
  1039 : FFFF;
  103A : FFFF;
  103B : FFFF;
  103C : FFFF;
  103D : FFFF;
  103E : FFFF;
  103F : FFFF;
  1040 : FFFF;
  1041 : FFFF;
  1042 : FFFF;
  1043 : FFFF;
  1044 : FFFF;
  1045 : FFFF;
  1046 : FFFF;
  1047 : FFFF;
  1048 : FFFF;
  1049 : FFFF;
  104A : FFFF;
  104B : FFFF;
  104C : FFFF;
  104D : FFFF;
  104E : FFFF;
  104F : FFFF;
  1050 : FFFF;
  1051 : FFFF;
  1052 : FFFF;
  1053 : FFFF;
  1054 : FFFF;
  1055 : FFFF;
  1056 : FFFF;
  1057 : FFFF;
  1058 : FFFF;
  1059 : FFFF;
  105A : FFFF;
  105B : FFFF;
  105C : FFFF;
  105D : FFFF;
  105E : FFFF;
  105F : FFDF;
  1060 : 5A2A;
  1061 : 4126;
  1062 : 4988;
  1063 : 4987;
  1064 : 4126;
  1065 : C5D7;
  1066 : FFFF;
  1067 : FFBD;
  1068 : FD09;
  1069 : FCA6;
  106A : FCC7;
  106B : FD09;
  106C : FD09;
  106D : FD09;
  106E : FD09;
  106F : FD09;
  1070 : FD09;
  1071 : FD09;
  1072 : FD09;
  1073 : FD09;
  1074 : FD09;
  1075 : FD09;
  1076 : FD09;
  1077 : FCE8;
  1078 : FCC7;
  1079 : FC85;
  107A : FDEF;
  107B : FFFF;
  107C : FFFF;
  107D : 8BD0;
  107E : 4126;
  107F : 4988;
  1080 : 49C7;
  1081 : 0000;
  1082 : 0000;
  1083 : 0000;
  1084 : 0000;
  1085 : 0000;
  1086 : 0000;
  1087 : 0000;
  1088 : 0000;
  1089 : 0000;
  108A : 0000;
  108B : 0000;
  108C : 0000;
  108D : 0000;
  108E : 0000;
  108F : 51E9;
  1090 : 51A8;
  1091 : 4967;
  1092 : 8BF0;
  1093 : FFFF;
  1094 : FFFF;
  1095 : FE10;
  1096 : FCC7;
  1097 : FD09;
  1098 : FD09;
  1099 : FD09;
  109A : FD09;
  109B : FD09;
  109C : FD09;
  109D : FD09;
  109E : FD09;
  109F : FCC8;
  10A0 : E2C2;
  10A1 : DA60;
  10A2 : EB64;
  10A3 : FD29;
  10A4 : FD09;
  10A5 : FD09;
  10A6 : FD09;
  10A7 : FD09;
  10A8 : FD09;
  10A9 : FD09;
  10AA : FD09;
  10AB : FCE8;
  10AC : FCC7;
  10AD : FEF8;
  10AE : FFFF;
  10AF : FFFF;
  10B0 : FFFF;
  10B1 : FFFF;
  10B2 : FFFF;
  10B3 : FFFF;
  10B4 : FFFF;
  10B5 : FFFF;
  10B6 : FFFF;
  10B7 : FFFF;
  10B8 : FFFF;
  10B9 : FFFF;
  10BA : FFFF;
  10BB : FFFF;
  10BC : FFFF;
  10BD : FFFF;
  10BE : FFFF;
  10BF : FFFF;
  10C0 : FFFF;
  10C1 : FFFF;
  10C2 : FFFF;
  10C3 : FFFF;
  10C4 : FFFF;
  10C5 : FFFF;
  10C6 : FFFF;
  10C7 : FFFF;
  10C8 : FFFF;
  10C9 : FFFF;
  10CA : FFFF;
  10CB : FFFF;
  10CC : FFFF;
  10CD : FDEF;
  10CE : FC85;
  10CF : FCC7;
  10D0 : FCE8;
  10D1 : FD09;
  10D2 : FD09;
  10D3 : FD09;
  10D4 : FD09;
  10D5 : FD09;
  10D6 : FD09;
  10D7 : FD09;
  10D8 : FD09;
  10D9 : FD09;
  10DA : FD09;
  10DB : FD09;
  10DC : FD09;
  10DD : FCC7;
  10DE : FCA6;
  10DF : FD09;
  10E0 : FFBD;
  10E1 : FFFF;
  10E2 : C5D7;
  10E3 : 4126;
  10E4 : 4987;
  10E5 : 51A8;
  10E6 : 4947;
  10E7 : 622A;
  10E8 : FFDF;
  10E9 : FFFF;
  10EA : FFFF;
  10EB : FFFF;
  10EC : FFFF;
  10ED : FFFF;
  10EE : FFFF;
  10EF : FFFF;
  10F0 : FFFF;
  10F1 : FFFF;
  10F2 : FFFF;
  10F3 : FFFF;
  10F4 : FFFF;
  10F5 : FFFF;
  10F6 : FFFF;
  10F7 : FFFF;
  10F8 : FFFF;
  10F9 : FFFF;
  10FA : FFFF;
  10FB : FFFF;
  10FC : FFFF;
  10FD : 9411;
  10FE : 4147;
  10FF : 51C8;
  1100 : 51C8;
  1101 : 4947;
  1102 : 8BF0;
  1103 : FFFF;
  1104 : FFFF;
  1105 : FE10;
  1106 : FCC7;
  1107 : FD09;
  1108 : FD09;
  1109 : FD09;
  110A : FD09;
  110B : FD09;
  110C : FD09;
  110D : FD09;
  110E : FD09;
  110F : FCC8;
  1110 : E323;
  1111 : E2E2;
  1112 : E2E2;
  1113 : E2E2;
  1114 : E2E2;
  1115 : E2E2;
  1116 : E2E2;
  1117 : E2E2;
  1118 : E2E2;
  1119 : E2E2;
  111A : E2E2;
  111B : E2E2;
  111C : E2A1;
  111D : F655;
  111E : FFFF;
  111F : F77E;
  1120 : 624A;
  1121 : 38E5;
  1122 : 8BF0;
  1123 : FFFF;
  1124 : FFFF;
  1125 : FFFF;
  1126 : FFFF;
  1127 : FFFF;
  1128 : FFFF;
  1129 : FFFF;
  112A : FFFF;
  112B : FFFF;
  112C : FFFF;
  112D : FFFF;
  112E : FFFF;
  112F : FFFF;
  1130 : FFFF;
  1131 : FFFF;
  1132 : FFFF;
  1133 : FFFF;
  1134 : FFFF;
  1135 : FFFF;
  1136 : FFFF;
  1137 : FFFF;
  1138 : FFFF;
  1139 : FFFF;
  113A : FFFF;
  113B : FFFF;
  113C : FFFF;
  113D : FFFF;
  113E : FFFF;
  113F : FFFF;
  1140 : FFFF;
  1141 : FFFF;
  1142 : FFFF;
  1143 : FFFF;
  1144 : FFFF;
  1145 : FFFF;
  1146 : FFFF;
  1147 : FFFF;
  1148 : FFFF;
  1149 : FFFF;
  114A : FFFF;
  114B : FFFF;
  114C : FFFF;
  114D : FFFF;
  114E : FFFF;
  114F : FFFF;
  1150 : FFFF;
  1151 : FFFF;
  1152 : FFFF;
  1153 : FFFF;
  1154 : FFFF;
  1155 : FFFF;
  1156 : FFFF;
  1157 : FFFF;
  1158 : FFFF;
  1159 : FFFF;
  115A : FFFF;
  115B : FFFF;
  115C : FFFF;
  115D : FFFF;
  115E : FFFF;
  115F : F77E;
  1160 : 624A;
  1161 : 4967;
  1162 : 51A8;
  1163 : 51A8;
  1164 : 4967;
  1165 : C5D7;
  1166 : FFFF;
  1167 : FFBE;
  1168 : FD4A;
  1169 : FCE8;
  116A : FD09;
  116B : FD09;
  116C : FD09;
  116D : FD09;
  116E : FD09;
  116F : FD09;
  1170 : FD09;
  1171 : FD09;
  1172 : FD09;
  1173 : FD09;
  1174 : FD09;
  1175 : FD09;
  1176 : FD09;
  1177 : FD09;
  1178 : FD09;
  1179 : FCC7;
  117A : FE10;
  117B : FFFF;
  117C : FFFF;
  117D : 8BF0;
  117E : 4947;
  117F : 51A8;
  1180 : 51A8;
  1181 : 0000;
  1182 : 0000;
  1183 : 0000;
  1184 : 0000;
  1185 : 0000;
  1186 : 0000;
  1187 : 0000;
  1188 : 0000;
  1189 : 0000;
  118A : 0000;
  118B : 0000;
  118C : 0000;
  118D : 0000;
  118E : 0000;
  118F : 51E9;
  1190 : 51A8;
  1191 : 4967;
  1192 : 8BF0;
  1193 : FFFF;
  1194 : FFFF;
  1195 : FE10;
  1196 : FCC7;
  1197 : FD09;
  1198 : FD09;
  1199 : FD09;
  119A : FD09;
  119B : FD09;
  119C : FD09;
  119D : FD09;
  119E : FD09;
  119F : FCC8;
  11A0 : E323;
  11A1 : E2C2;
  11A2 : EBA5;
  11A3 : FD09;
  11A4 : FD09;
  11A5 : FD09;
  11A6 : FD09;
  11A7 : FD09;
  11A8 : FD09;
  11A9 : FD09;
  11AA : FD09;
  11AB : FCE8;
  11AC : FCC7;
  11AD : FEF8;
  11AE : FFFF;
  11AF : FFFF;
  11B0 : FFFF;
  11B1 : FFFF;
  11B2 : FFFF;
  11B3 : FFFF;
  11B4 : FFFF;
  11B5 : FFFF;
  11B6 : FFFF;
  11B7 : FFFF;
  11B8 : FFFF;
  11B9 : FFFF;
  11BA : FFFF;
  11BB : FFFF;
  11BC : FFFF;
  11BD : FFFF;
  11BE : FFFF;
  11BF : FFFF;
  11C0 : FFFF;
  11C1 : FFFF;
  11C2 : FFFF;
  11C3 : FFFF;
  11C4 : FFFF;
  11C5 : FFFF;
  11C6 : FFFF;
  11C7 : FFFF;
  11C8 : FFFF;
  11C9 : FFFF;
  11CA : FFFF;
  11CB : FFFF;
  11CC : FFFF;
  11CD : FE10;
  11CE : FCC7;
  11CF : FD09;
  11D0 : FD09;
  11D1 : FD09;
  11D2 : FD09;
  11D3 : FD09;
  11D4 : FD09;
  11D5 : FD09;
  11D6 : FD09;
  11D7 : FD09;
  11D8 : FD09;
  11D9 : FD09;
  11DA : FD09;
  11DB : FD09;
  11DC : FD09;
  11DD : FD09;
  11DE : FCE8;
  11DF : FD4A;
  11E0 : FFBE;
  11E1 : FFFF;
  11E2 : C5D7;
  11E3 : 4967;
  11E4 : 51A8;
  11E5 : 51A8;
  11E6 : 4967;
  11E7 : 624A;
  11E8 : F77E;
  11E9 : FFFF;
  11EA : FFFF;
  11EB : FFFF;
  11EC : FFFF;
  11ED : FFFF;
  11EE : FFFF;
  11EF : FFFF;
  11F0 : FFFF;
  11F1 : FFFF;
  11F2 : FFFF;
  11F3 : FFFF;
  11F4 : FFFF;
  11F5 : FFFF;
  11F6 : FFFF;
  11F7 : FFFF;
  11F8 : FFFF;
  11F9 : FFFF;
  11FA : FFFF;
  11FB : FFFF;
  11FC : FFFF;
  11FD : 8BF0;
  11FE : 4947;
  11FF : 51C8;
  1200 : 51C8;
  1201 : 4947;
  1202 : 8BF0;
  1203 : FFFF;
  1204 : FFFF;
  1205 : FE10;
  1206 : FCC7;
  1207 : FD09;
  1208 : FD09;
  1209 : FD09;
  120A : FD09;
  120B : FD09;
  120C : FD09;
  120D : FD09;
  120E : FCE8;
  120F : FD2A;
  1210 : F635;
  1211 : F656;
  1212 : F656;
  1213 : F656;
  1214 : F656;
  1215 : F656;
  1216 : F656;
  1217 : F656;
  1218 : F656;
  1219 : F656;
  121A : F656;
  121B : F656;
  121C : F656;
  121D : FF7C;
  121E : FFFF;
  121F : FFDF;
  1220 : CE19;
  1221 : C5B7;
  1222 : DEBB;
  1223 : FFFF;
  1224 : FFFF;
  1225 : FEB5;
  1226 : FDCF;
  1227 : FDF0;
  1228 : FDF0;
  1229 : FDF0;
  122A : FDF0;
  122B : FDF0;
  122C : FDF0;
  122D : FDF0;
  122E : FDF0;
  122F : FDF0;
  1230 : FDF0;
  1231 : FDF0;
  1232 : FDF0;
  1233 : FDF0;
  1234 : FDF0;
  1235 : FDF0;
  1236 : FDEF;
  1237 : FE31;
  1238 : FFDE;
  1239 : FFFF;
  123A : FF5A;
  123B : FDEF;
  123C : FDF0;
  123D : FDF0;
  123E : FDF0;
  123F : FDF0;
  1240 : FDF0;
  1241 : FDF0;
  1242 : FDF0;
  1243 : FDF0;
  1244 : FDF0;
  1245 : FDF0;
  1246 : FDF0;
  1247 : FDF0;
  1248 : FDF0;
  1249 : FDF0;
  124A : FDF0;
  124B : FDF0;
  124C : FDF0;
  124D : FDF0;
  124E : FDF0;
  124F : FDF0;
  1250 : FDF0;
  1251 : FDF0;
  1252 : FDF0;
  1253 : FDF0;
  1254 : FDF0;
  1255 : FDF0;
  1256 : FDF0;
  1257 : FDF0;
  1258 : FDF0;
  1259 : FDF0;
  125A : FDF0;
  125B : FDF0;
  125C : FDEF;
  125D : FF5A;
  125E : FFFF;
  125F : FFDF;
  1260 : CE19;
  1261 : C5D8;
  1262 : C5F8;
  1263 : C5F8;
  1264 : C5D8;
  1265 : EF5D;
  1266 : FFFF;
  1267 : FFBE;
  1268 : FD4A;
  1269 : FCE8;
  126A : FD09;
  126B : FD09;
  126C : FD09;
  126D : FD09;
  126E : FD09;
  126F : FD09;
  1270 : FD09;
  1271 : FD09;
  1272 : FD09;
  1273 : FD09;
  1274 : FD09;
  1275 : FD09;
  1276 : FD09;
  1277 : FD09;
  1278 : FD09;
  1279 : FCC7;
  127A : FE10;
  127B : FFFF;
  127C : FFFF;
  127D : DEBB;
  127E : C5D8;
  127F : C5B7;
  1280 : 624A;
  1281 : 5188;
  1282 : 51C8;
  1283 : 0000;
  1284 : 0000;
  1285 : 0000;
  1286 : 0000;
  1287 : 0000;
  1288 : 0000;
  1289 : 0000;
  128A : 0000;
  128B : 0000;
  128C : 0000;
  128D : 0000;
  128E : 0000;
  128F : 51E9;
  1290 : 51A8;
  1291 : 4967;
  1292 : 8BF0;
  1293 : FFFF;
  1294 : FFFF;
  1295 : FE10;
  1296 : FCC7;
  1297 : FD09;
  1298 : FD09;
  1299 : FD09;
  129A : FD09;
  129B : FD09;
  129C : FD09;
  129D : FD09;
  129E : FCE8;
  129F : FD2A;
  12A0 : F635;
  12A1 : F656;
  12A2 : FDF1;
  12A3 : FCE8;
  12A4 : FCE8;
  12A5 : FD09;
  12A6 : FD09;
  12A7 : FD09;
  12A8 : FD09;
  12A9 : FD09;
  12AA : FD09;
  12AB : FCE8;
  12AC : FCC7;
  12AD : FEF8;
  12AE : FFFF;
  12AF : FFDE;
  12B0 : FE31;
  12B1 : FDEF;
  12B2 : FDF0;
  12B3 : FDF0;
  12B4 : FDF0;
  12B5 : FDF0;
  12B6 : FDF0;
  12B7 : FDF0;
  12B8 : FDF0;
  12B9 : FDCF;
  12BA : FEB5;
  12BB : FFFF;
  12BC : FFFF;
  12BD : FEB5;
  12BE : FDCF;
  12BF : FDF0;
  12C0 : FDF0;
  12C1 : FDF0;
  12C2 : FDF0;
  12C3 : FDF0;
  12C4 : FDF0;
  12C5 : FDF0;
  12C6 : FDEF;
  12C7 : FE31;
  12C8 : FFDE;
  12C9 : FFFF;
  12CA : FFFF;
  12CB : FFFF;
  12CC : FFFF;
  12CD : FE10;
  12CE : FCC7;
  12CF : FD09;
  12D0 : FD09;
  12D1 : FD09;
  12D2 : FD09;
  12D3 : FD09;
  12D4 : FD09;
  12D5 : FD09;
  12D6 : FD09;
  12D7 : FD09;
  12D8 : FD09;
  12D9 : FD09;
  12DA : FD09;
  12DB : FD09;
  12DC : FD09;
  12DD : FD09;
  12DE : FCE8;
  12DF : FD4A;
  12E0 : FFBE;
  12E1 : FFFF;
  12E2 : EF5D;
  12E3 : C5D8;
  12E4 : C5F8;
  12E5 : C5F8;
  12E6 : C5D8;
  12E7 : CE19;
  12E8 : FFDF;
  12E9 : FFFF;
  12EA : FF5A;
  12EB : FDEF;
  12EC : FDF0;
  12ED : FDF0;
  12EE : FDF0;
  12EF : FDF0;
  12F0 : FDF0;
  12F1 : FDF0;
  12F2 : FDF0;
  12F3 : FDF0;
  12F4 : FDF0;
  12F5 : FDF0;
  12F6 : FDF0;
  12F7 : FDF0;
  12F8 : FDF0;
  12F9 : FDCF;
  12FA : FEB5;
  12FB : FFFF;
  12FC : FFFF;
  12FD : 8BF0;
  12FE : 4947;
  12FF : 51C8;
  1300 : 51C8;
  1301 : 4947;
  1302 : 8BF0;
  1303 : FFFF;
  1304 : FFFF;
  1305 : FE10;
  1306 : FCC7;
  1307 : FD09;
  1308 : FD09;
  1309 : FD09;
  130A : FD09;
  130B : FD09;
  130C : FD09;
  130D : FD09;
  130E : FCC7;
  130F : FD4B;
  1310 : FFFF;
  1311 : FFFF;
  1312 : FFFF;
  1313 : FFFF;
  1314 : FFFF;
  1315 : FFFF;
  1316 : FFFF;
  1317 : FFFF;
  1318 : FFFF;
  1319 : FFFF;
  131A : FFFF;
  131B : FFFF;
  131C : FFFF;
  131D : FFFF;
  131E : FFFF;
  131F : FFFF;
  1320 : FFFF;
  1321 : FFFF;
  1322 : FFFF;
  1323 : FFFF;
  1324 : FFFF;
  1325 : FDF0;
  1326 : FC85;
  1327 : FCC7;
  1328 : FCC7;
  1329 : FCC7;
  132A : FCC7;
  132B : FCC7;
  132C : FCC7;
  132D : FCC7;
  132E : FCC7;
  132F : FCC7;
  1330 : FCC7;
  1331 : FCC7;
  1332 : FCC7;
  1333 : FCC7;
  1334 : FCC7;
  1335 : FCC7;
  1336 : FCA6;
  1337 : FD09;
  1338 : FFBD;
  1339 : FFFF;
  133A : FEF7;
  133B : FCA6;
  133C : FCC7;
  133D : FCC7;
  133E : FCC7;
  133F : FCC7;
  1340 : FCC7;
  1341 : FCC7;
  1342 : FCC7;
  1343 : FCC7;
  1344 : FCC7;
  1345 : FCC7;
  1346 : FCC7;
  1347 : FCC7;
  1348 : FCC7;
  1349 : FCC7;
  134A : FCC7;
  134B : FCC7;
  134C : FCC7;
  134D : FCC7;
  134E : FCC7;
  134F : FCC7;
  1350 : FCC7;
  1351 : FCC7;
  1352 : FCC7;
  1353 : FCC7;
  1354 : FCC7;
  1355 : FCC7;
  1356 : FCC7;
  1357 : FCC7;
  1358 : FCC7;
  1359 : FCC7;
  135A : FCC7;
  135B : FCC7;
  135C : FCA6;
  135D : FEF7;
  135E : FFFF;
  135F : FFFF;
  1360 : FFFF;
  1361 : FFFF;
  1362 : FFFF;
  1363 : FFFF;
  1364 : FFFF;
  1365 : FFFF;
  1366 : FFFF;
  1367 : FFDE;
  1368 : FD4A;
  1369 : FCE8;
  136A : FD09;
  136B : FD09;
  136C : FD09;
  136D : FD09;
  136E : FD09;
  136F : FD09;
  1370 : FD09;
  1371 : FD09;
  1372 : FD09;
  1373 : FD09;
  1374 : FD09;
  1375 : FD09;
  1376 : FD09;
  1377 : FD09;
  1378 : FD09;
  1379 : FCC7;
  137A : FE11;
  137B : FFFF;
  137C : FFFF;
  137D : FFFF;
  137E : FFFF;
  137F : FFFF;
  1380 : 6A6B;
  1381 : 59A9;
  1382 : 51C8;
  1383 : 0000;
  1384 : 0000;
  1385 : 0000;
  1386 : 0000;
  1387 : 0000;
  1388 : 0000;
  1389 : 0000;
  138A : 0000;
  138B : 0000;
  138C : 0000;
  138D : 0000;
  138E : 0000;
  138F : 51E9;
  1390 : 51A8;
  1391 : 4967;
  1392 : 8BF0;
  1393 : FFFF;
  1394 : FFFF;
  1395 : FE10;
  1396 : FCC7;
  1397 : FD09;
  1398 : FD09;
  1399 : FD09;
  139A : FD09;
  139B : FD09;
  139C : FD09;
  139D : FD09;
  139E : FCC7;
  139F : FD4B;
  13A0 : FFFF;
  13A1 : FFFF;
  13A2 : FF39;
  13A3 : FCC7;
  13A4 : FCE8;
  13A5 : FD09;
  13A6 : FD09;
  13A7 : FD09;
  13A8 : FD09;
  13A9 : FD09;
  13AA : FD09;
  13AB : FCE8;
  13AC : FCC7;
  13AD : FEF8;
  13AE : FFFF;
  13AF : FFBD;
  13B0 : FD09;
  13B1 : FCA6;
  13B2 : FCC7;
  13B3 : FCC7;
  13B4 : FCC7;
  13B5 : FCC7;
  13B6 : FCC7;
  13B7 : FCC7;
  13B8 : FCC7;
  13B9 : FC85;
  13BA : FDEF;
  13BB : FFFF;
  13BC : FFFF;
  13BD : FDEF;
  13BE : FC85;
  13BF : FCC7;
  13C0 : FCC7;
  13C1 : FCC7;
  13C2 : FCC7;
  13C3 : FCC7;
  13C4 : FCC7;
  13C5 : FCC7;
  13C6 : FCA6;
  13C7 : FD09;
  13C8 : FFBD;
  13C9 : FFFF;
  13CA : FFFF;
  13CB : FFFF;
  13CC : FFFF;
  13CD : FE11;
  13CE : FCC7;
  13CF : FD09;
  13D0 : FD09;
  13D1 : FD09;
  13D2 : FD09;
  13D3 : FD09;
  13D4 : FD09;
  13D5 : FD09;
  13D6 : FD09;
  13D7 : FD09;
  13D8 : FD09;
  13D9 : FD09;
  13DA : FD09;
  13DB : FD09;
  13DC : FD09;
  13DD : FD09;
  13DE : FCE8;
  13DF : FD4A;
  13E0 : FFDE;
  13E1 : FFFF;
  13E2 : FFFF;
  13E3 : FFFF;
  13E4 : FFFF;
  13E5 : FFFF;
  13E6 : FFFF;
  13E7 : FFFF;
  13E8 : FFFF;
  13E9 : FFFF;
  13EA : FEF7;
  13EB : FCA6;
  13EC : FCC7;
  13ED : FCC7;
  13EE : FCC7;
  13EF : FCC7;
  13F0 : FCC7;
  13F1 : FCC7;
  13F2 : FCC7;
  13F3 : FCC7;
  13F4 : FCC7;
  13F5 : FCC7;
  13F6 : FCC7;
  13F7 : FCC7;
  13F8 : FCC7;
  13F9 : FC85;
  13FA : FDEF;
  13FB : FFFF;
  13FC : FFFF;
  13FD : 8BF0;
  13FE : 4947;
  13FF : 51C8;
  1400 : 51C8;
  1401 : 4947;
  1402 : 8BF0;
  1403 : FFFF;
  1404 : FFFF;
  1405 : FE10;
  1406 : FCC7;
  1407 : FD09;
  1408 : FD09;
  1409 : FD09;
  140A : FD09;
  140B : FD09;
  140C : FD09;
  140D : FD09;
  140E : FCE8;
  140F : FD4A;
  1410 : FFBE;
  1411 : FFFF;
  1412 : FFFF;
  1413 : FFFF;
  1414 : FFFF;
  1415 : FFFF;
  1416 : FFFF;
  1417 : FFFF;
  1418 : FFFF;
  1419 : FFFF;
  141A : FFFF;
  141B : FFFF;
  141C : FFFF;
  141D : FFFF;
  141E : FFFF;
  141F : FFFF;
  1420 : FFFF;
  1421 : FFFF;
  1422 : FFFF;
  1423 : FFFF;
  1424 : FFFF;
  1425 : FE11;
  1426 : FCC7;
  1427 : FD09;
  1428 : FD09;
  1429 : FD09;
  142A : FD09;
  142B : FD09;
  142C : FD09;
  142D : FD09;
  142E : FD09;
  142F : FD09;
  1430 : FD09;
  1431 : FD09;
  1432 : FD09;
  1433 : FD09;
  1434 : FD09;
  1435 : FD09;
  1436 : FCE8;
  1437 : FD4A;
  1438 : FFBE;
  1439 : FFFF;
  143A : FEF8;
  143B : FCC7;
  143C : FCE8;
  143D : FD09;
  143E : FD09;
  143F : FD09;
  1440 : FD09;
  1441 : FD09;
  1442 : FD09;
  1443 : FD09;
  1444 : FD09;
  1445 : FD09;
  1446 : FD09;
  1447 : FD09;
  1448 : FD09;
  1449 : FD09;
  144A : FD09;
  144B : FD09;
  144C : FD09;
  144D : FD09;
  144E : FD09;
  144F : FD09;
  1450 : FD09;
  1451 : FD09;
  1452 : FD09;
  1453 : FD09;
  1454 : FD09;
  1455 : FD09;
  1456 : FD09;
  1457 : FD09;
  1458 : FD09;
  1459 : FD09;
  145A : FD09;
  145B : FCE8;
  145C : FCC7;
  145D : FEF8;
  145E : FFFF;
  145F : FFFF;
  1460 : FFFF;
  1461 : FFFF;
  1462 : FFFF;
  1463 : FFFF;
  1464 : FFFF;
  1465 : FFFF;
  1466 : FFFF;
  1467 : FFDE;
  1468 : FD4A;
  1469 : FCE8;
  146A : FD09;
  146B : FD09;
  146C : FD09;
  146D : FD09;
  146E : FD09;
  146F : FD09;
  1470 : FD09;
  1471 : FD09;
  1472 : FD09;
  1473 : FD09;
  1474 : FD09;
  1475 : FD09;
  1476 : FD09;
  1477 : FD09;
  1478 : FD09;
  1479 : FCC7;
  147A : FE11;
  147B : FFFF;
  147C : FFFF;
  147D : FFFF;
  147E : FFFF;
  147F : F77E;
  1480 : 624A;
  1481 : 5188;
  1482 : 51C8;
  1483 : 0000;
  1484 : 0000;
  1485 : 0000;
  1486 : 0000;
  1487 : 0000;
  1488 : 0000;
  1489 : 0000;
  148A : 0000;
  148B : 0000;
  148C : 0000;
  148D : 0000;
  148E : 0000;
  148F : 51E9;
  1490 : 51A8;
  1491 : 4967;
  1492 : 8BF0;
  1493 : FFFF;
  1494 : FFFF;
  1495 : FE10;
  1496 : FCC7;
  1497 : FD09;
  1498 : FD09;
  1499 : FD09;
  149A : FD09;
  149B : FD09;
  149C : FD09;
  149D : FD09;
  149E : FCE8;
  149F : FD4A;
  14A0 : FFBE;
  14A1 : FFFF;
  14A2 : FEF8;
  14A3 : FCC7;
  14A4 : FCE8;
  14A5 : FD09;
  14A6 : FD09;
  14A7 : FD09;
  14A8 : FD09;
  14A9 : FD09;
  14AA : FD09;
  14AB : FCE8;
  14AC : FCC7;
  14AD : FEF8;
  14AE : FFFF;
  14AF : FFBE;
  14B0 : FD4A;
  14B1 : FCE8;
  14B2 : FD09;
  14B3 : FD09;
  14B4 : FD09;
  14B5 : FD09;
  14B6 : FD09;
  14B7 : FD09;
  14B8 : FD09;
  14B9 : FCC7;
  14BA : FE10;
  14BB : FFFF;
  14BC : FFFF;
  14BD : FE10;
  14BE : FCC7;
  14BF : FD09;
  14C0 : FD09;
  14C1 : FD09;
  14C2 : FD09;
  14C3 : FD09;
  14C4 : FD09;
  14C5 : FD09;
  14C6 : FCE8;
  14C7 : FD4A;
  14C8 : FFBE;
  14C9 : FFFF;
  14CA : FFFF;
  14CB : FFFF;
  14CC : FFFF;
  14CD : FE11;
  14CE : FCC7;
  14CF : FD09;
  14D0 : FD09;
  14D1 : FD09;
  14D2 : FD09;
  14D3 : FD09;
  14D4 : FD09;
  14D5 : FD09;
  14D6 : FD09;
  14D7 : FD09;
  14D8 : FD09;
  14D9 : FD09;
  14DA : FD09;
  14DB : FD09;
  14DC : FD09;
  14DD : FD09;
  14DE : FCE8;
  14DF : FD4A;
  14E0 : FFDE;
  14E1 : FFFF;
  14E2 : FFFF;
  14E3 : FFFF;
  14E4 : FFFF;
  14E5 : FFFF;
  14E6 : FFFF;
  14E7 : FFFF;
  14E8 : FFFF;
  14E9 : FFFF;
  14EA : FEF8;
  14EB : FCC7;
  14EC : FCE8;
  14ED : FD09;
  14EE : FD09;
  14EF : FD09;
  14F0 : FD09;
  14F1 : FD09;
  14F2 : FD09;
  14F3 : FD09;
  14F4 : FD09;
  14F5 : FD09;
  14F6 : FD09;
  14F7 : FD09;
  14F8 : FD09;
  14F9 : FCC7;
  14FA : FE10;
  14FB : FFFF;
  14FC : FFFF;
  14FD : 8BF0;
  14FE : 4947;
  14FF : 51C8;
  1500 : 51C8;
  1501 : 4947;
  1502 : 8BF0;
  1503 : FFFF;
  1504 : FFFF;
  1505 : FE10;
  1506 : FCC7;
  1507 : FD09;
  1508 : FD09;
  1509 : FD09;
  150A : FD09;
  150B : FD09;
  150C : FD09;
  150D : FD09;
  150E : FCE8;
  150F : FD4A;
  1510 : FFBE;
  1511 : FFFF;
  1512 : FFFF;
  1513 : FFFF;
  1514 : FFFF;
  1515 : FFFF;
  1516 : FFFF;
  1517 : FFFF;
  1518 : FFFF;
  1519 : FFFF;
  151A : FFFF;
  151B : FFFF;
  151C : FFFF;
  151D : FFFF;
  151E : FFFF;
  151F : FFFF;
  1520 : FFFF;
  1521 : FFFF;
  1522 : FF5A;
  1523 : FDF0;
  1524 : FE11;
  1525 : FD6B;
  1526 : FCE8;
  1527 : FD09;
  1528 : FD09;
  1529 : FD09;
  152A : FD09;
  152B : FD09;
  152C : FD09;
  152D : FD09;
  152E : FD09;
  152F : FD09;
  1530 : FD09;
  1531 : FD09;
  1532 : FD09;
  1533 : FD09;
  1534 : FD09;
  1535 : FD09;
  1536 : FCE8;
  1537 : FD4A;
  1538 : FFBE;
  1539 : FFFF;
  153A : FEF8;
  153B : FCC7;
  153C : FCE8;
  153D : FD09;
  153E : FD09;
  153F : FD09;
  1540 : FD09;
  1541 : FD09;
  1542 : FD09;
  1543 : FD09;
  1544 : FD09;
  1545 : FD09;
  1546 : FD09;
  1547 : FD09;
  1548 : FD09;
  1549 : FD09;
  154A : FD09;
  154B : FD09;
  154C : FD09;
  154D : FD09;
  154E : FD09;
  154F : FD09;
  1550 : FD09;
  1551 : FD09;
  1552 : FD09;
  1553 : FD09;
  1554 : FD09;
  1555 : FD09;
  1556 : FD09;
  1557 : FD09;
  1558 : FD09;
  1559 : FD09;
  155A : FD09;
  155B : FD09;
  155C : FCE8;
  155D : FDAE;
  155E : FE10;
  155F : FE52;
  1560 : FFDE;
  1561 : FFFF;
  1562 : FFFF;
  1563 : FFFF;
  1564 : FFFF;
  1565 : FED6;
  1566 : FDF0;
  1567 : FE10;
  1568 : FD09;
  1569 : FCE8;
  156A : FD09;
  156B : FD09;
  156C : FD09;
  156D : FD09;
  156E : FD09;
  156F : FD09;
  1570 : FD09;
  1571 : FD09;
  1572 : FD09;
  1573 : FD09;
  1574 : FD09;
  1575 : FD09;
  1576 : FD09;
  1577 : FD09;
  1578 : FD09;
  1579 : FCE8;
  157A : FD6B;
  157B : FE11;
  157C : FDF0;
  157D : FF5A;
  157E : FFFF;
  157F : F77E;
  1580 : 624A;
  1581 : 5188;
  1582 : 51C8;
  1583 : 0000;
  1584 : 0000;
  1585 : 0000;
  1586 : 0000;
  1587 : 0000;
  1588 : 0000;
  1589 : 0000;
  158A : 0000;
  158B : 0000;
  158C : 0000;
  158D : 0000;
  158E : 0000;
  158F : 51E9;
  1590 : 51A8;
  1591 : 4967;
  1592 : 8BF0;
  1593 : FFFF;
  1594 : FFFF;
  1595 : FE10;
  1596 : FCC7;
  1597 : FD09;
  1598 : FD09;
  1599 : FD09;
  159A : FD09;
  159B : FD09;
  159C : FD09;
  159D : FD09;
  159E : FCE8;
  159F : FD4A;
  15A0 : FFBE;
  15A1 : FFFF;
  15A2 : FEF8;
  15A3 : FCC7;
  15A4 : FCE8;
  15A5 : FD09;
  15A6 : FD09;
  15A7 : FD09;
  15A8 : FD09;
  15A9 : FD09;
  15AA : FD09;
  15AB : FCE8;
  15AC : FCC7;
  15AD : FEF8;
  15AE : FFFF;
  15AF : FFBE;
  15B0 : FD4A;
  15B1 : FCE8;
  15B2 : FD09;
  15B3 : FD09;
  15B4 : FD09;
  15B5 : FD09;
  15B6 : FD09;
  15B7 : FD09;
  15B8 : FD09;
  15B9 : FCC7;
  15BA : FE10;
  15BB : FFFF;
  15BC : FFFF;
  15BD : FE10;
  15BE : FCC7;
  15BF : FD09;
  15C0 : FD09;
  15C1 : FD09;
  15C2 : FD09;
  15C3 : FD09;
  15C4 : FD09;
  15C5 : FD09;
  15C6 : FCE8;
  15C7 : FD4A;
  15C8 : FFBE;
  15C9 : FFFF;
  15CA : FF5A;
  15CB : FDF0;
  15CC : FE11;
  15CD : FD6B;
  15CE : FCE8;
  15CF : FD09;
  15D0 : FD09;
  15D1 : FD09;
  15D2 : FD09;
  15D3 : FD09;
  15D4 : FD09;
  15D5 : FD09;
  15D6 : FD09;
  15D7 : FD09;
  15D8 : FD09;
  15D9 : FD09;
  15DA : FD09;
  15DB : FD09;
  15DC : FD09;
  15DD : FD09;
  15DE : FCE8;
  15DF : FD09;
  15E0 : FE10;
  15E1 : FDF0;
  15E2 : FED6;
  15E3 : FFFF;
  15E4 : FFFF;
  15E5 : FFFF;
  15E6 : FFFF;
  15E7 : FFDE;
  15E8 : FE52;
  15E9 : FE10;
  15EA : FDAE;
  15EB : FCE8;
  15EC : FD09;
  15ED : FD09;
  15EE : FD09;
  15EF : FD09;
  15F0 : FD09;
  15F1 : FD09;
[...]
  3ACC : 59E9;
  3ACD : CDF8;
  3ACE : FFFF;
  3ACF : FFFF;
  3AD0 : FFBE;
  3AD1 : FF9D;
  3AD2 : FFBD;
  3AD3 : FFBD;
  3AD4 : FFBD;
  3AD5 : FFBD;
  3AD6 : FF9D;
  3AD7 : FFBE;
  3AD8 : FFFF;
  3AD9 : FFFF;
  3ADA : C5D7;
  3ADB : 4967;
  3ADC : 51C9;
  3ADD : 51A9;
  3ADE : 0000;
  3ADF : 51E9;
  3AE0 : 51A8;
  3AE1 : 4967;
  3AE2 : 8BF0;
  3AE3 : FFFF;
  3AE4 : FFFF;
  3AE5 : FFDE;
  3AE6 : FF9D;
  3AE7 : FFBD;
  3AE8 : FFBD;
  3AE9 : FFBD;
  3AEA : FFBD;
  3AEB : FFBD;
  3AEC : FFBD;
  3AED : FFBD;
  3AEE : FF9D;
  3AEF : FFBE;
  3AF0 : FFFF;
  3AF1 : FFFF;
  3AF2 : C5D7;
  3AF3 : 4967;
  3AF4 : 51C9;
  3AF5 : 51A8;
  3AF6 : 0000;
  3AF7 : 0000;
  3AF8 : 0000;
  3AF9 : 0000;
  3AFA : 0000;
  3AFB : 0000;
  3AFC : 0000;
  3AFD : 0000;
  3AFE : 0000;
  3AFF : 0000;
  3B00 : 0000;
  3B01 : 0000;
  3B02 : 0000;
  3B03 : 0000;
  3B04 : 0000;
  3B05 : 4967;
  3B06 : 4947;
  3B07 : 5A0A;
  3B08 : FFDF;
  3B09 : FFFF;
  3B0A : FFFF;
  3B0B : FFFF;
  3B0C : FFFF;
  3B0D : FFFF;
  3B0E : FFFF;
  3B0F : FFFF;
  3B10 : FFFF;
  3B11 : FFFF;
  3B12 : FFFF;
  3B13 : FFFF;
  3B14 : FFFF;
  3B15 : FFFF;
  3B16 : FFFF;
  3B17 : FFFF;
  3B18 : FFFF;
  3B19 : FFFF;
  3B1A : FFFF;
  3B1B : FFFF;
  3B1C : FFFF;
  3B1D : FFFF;
  3B1E : FFFF;
  3B1F : FFDF;
  3B20 : 5A09;
  3B21 : 3084;
  3B22 : 8BD0;
  3B23 : FFFF;
  3B24 : FFFF;
  3B25 : FFFF;
  3B26 : FFFF;
  3B27 : FFFF;
  3B28 : FFFF;
  3B29 : FFFF;
  3B2A : FFFF;
  3B2B : FFFF;
  3B2C : FFFF;
  3B2D : FFFF;
  3B2E : FFFF;
  3B2F : FFFF;
  3B30 : FFFF;
  3B31 : FFFF;
  3B32 : FFFF;
  3B33 : FFFF;
  3B34 : FFFF;
  3B35 : FFFF;
  3B36 : FFFF;
  3B37 : FFFF;
  3B38 : FFFF;
  3B39 : FFFF;
  3B3A : FFFF;
  3B3B : FFFF;
  3B3C : FFFF;
  3B3D : FFFF;
  3B3E : FFFF;
  3B3F : FFFF;
  3B40 : FFFF;
  3B41 : FFFF;
  3B42 : FFFF;
  3B43 : FFFF;
  3B44 : FFFF;
  3B45 : FFFF;
  3B46 : FFFF;
  3B47 : FFFF;
  3B48 : FFFF;
  3B49 : FFFF;
  3B4A : FFFF;
  3B4B : FFFF;
  3B4C : FFFF;
  3B4D : FFFF;
  3B4E : FFFF;
  3B4F : FFFF;
  3B50 : FFFF;
  3B51 : FFFF;
  3B52 : FFFF;
  3B53 : FFFF;
  3B54 : FFFF;
  3B55 : FFFF;
  3B56 : FFFF;
  3B57 : FFFF;
  3B58 : FFFF;
  3B59 : FFFF;
  3B5A : FFFF;
  3B5B : FFFF;
  3B5C : FFFF;
  3B5D : FFFF;
  3B5E : FFFF;
  3B5F : FFFF;
  3B60 : FFFF;
  3B61 : FFFF;
  3B62 : FFFF;
  3B63 : FFFF;
  3B64 : FFFF;
  3B65 : 8BD0;
  3B66 : 3084;
  3B67 : 5A09;
  3B68 : FFDF;
  3B69 : FFFF;
  3B6A : FFFF;
  3B6B : FFFF;
  3B6C : FFFF;
  3B6D : FFFF;
  3B6E : FFFF;
  3B6F : FFFF;
  3B70 : FFFF;
  3B71 : FFFF;
  3B72 : FFFF;
  3B73 : FFFF;
  3B74 : FFFF;
  3B75 : 9411;
  3B76 : 4947;
  3B77 : 51A8;
  3B78 : 51E9;
  3B79 : 0000;
  3B7A : 0000;
  3B7B : 0000;
  3B7C : 0000;
  3B7D : 0000;
  3B7E : 0000;
  3B7F : 0000;
  3B80 : 0000;
  3B81 : 0000;
  3B82 : 0000;
  3B83 : 0000;
  3B84 : 0000;
  3B85 : 0000;
  3B86 : 0000;
  3B87 : 0000;
  3B88 : 0000;
  3B89 : 0000;
  3B8A : 0000;
  3B8B : 0000;
  3B8C : 0000;
  3B8D : 0000;
  3B8E : 0000;
  3B8F : 0000;
  3B90 : 0000;
  3B91 : 0000;
  3B92 : 0000;
  3B93 : 0000;
  3B94 : 0000;
  3B95 : 4967;
  3B96 : 4947;
  3B97 : 5A0A;
  3B98 : FFDF;
  3B99 : FFFF;
  3B9A : FFFF;
  3B9B : FFFF;
  3B9C : FFFF;
  3B9D : FFFF;
  3B9E : FFFF;
  3B9F : FFFF;
  3BA0 : FFFF;
  3BA1 : FFFF;
  3BA2 : FFFF;
  3BA3 : FFFF;
  3BA4 : FFFF;
  3BA5 : FFFF;
  3BA6 : FFFF;
  3BA7 : FFFF;
  3BA8 : FFFF;
  3BA9 : FFFF;
  3BAA : CDF8;
  3BAB : 4106;
  3BAC : 4106;
  3BAD : CDF8;
  3BAE : FFFF;
  3BAF : FFFF;
  3BB0 : FFFF;
  3BB1 : FFFF;
  3BB2 : FFFF;
  3BB3 : FFFF;
  3BB4 : FFFF;
  3BB5 : FFFF;
  3BB6 : FFFF;
  3BB7 : FFFF;
  3BB8 : FFFF;
  3BB9 : FFFF;
  3BBA : FFFF;
  3BBB : FFFF;
  3BBC : FFFF;
  3BBD : FFFF;
  3BBE : FFFF;
  3BBF : FFDF;
  3BC0 : 5A0A;
  3BC1 : 4947;
  3BC2 : 4967;
  3BC3 : 0000;
  3BC4 : 0000;
  3BC5 : 0000;
  3BC6 : 0000;
  3BC7 : 0000;
  3BC8 : 0000;
  3BC9 : 0000;
  3BCA : 4947;
  3BCB : 5188;
  3BCC : 4127;
  3BCD : CE18;
  3BCE : FFFF;
  3BCF : FFFF;
  3BD0 : FFFF;
  3BD1 : FFFF;
  3BD2 : FFFF;
  3BD3 : FFFF;
  3BD4 : FFFF;
  3BD5 : FFFF;
  3BD6 : FFFF;
  3BD7 : FFFF;
  3BD8 : FFFF;
  3BD9 : FFFF;
  3BDA : CE18;
  3BDB : 4967;
  3BDC : 51C9;
  3BDD : 51A9;
  3BDE : 0000;
  3BDF : 51E9;
  3BE0 : 51A8;
  3BE1 : 4947;
  3BE2 : 9411;
  3BE3 : FFFF;
  3BE4 : FFFF;
  3BE5 : FFFF;
  3BE6 : FFFF;
  3BE7 : FFFF;
  3BE8 : FFFF;
  3BE9 : FFFF;
  3BEA : FFFF;
  3BEB : FFFF;
  3BEC : FFFF;
  3BED : FFFF;
  3BEE : FFFF;
  3BEF : FFFF;
  3BF0 : FFFF;
  3BF1 : FFFF;
  3BF2 : CE18;
  3BF3 : 4967;
  3BF4 : 51C9;
  3BF5 : 51A8;
  3BF6 : 0000;
  3BF7 : 0000;
  3BF8 : 0000;
  3BF9 : 0000;
  3BFA : 0000;
  3BFB : 0000;
  3BFC : 0000;
  3BFD : 0000;
  3BFE : 0000;
  3BFF : 0000;
  3C00 : 0000;
  3C01 : 0000;
  3C02 : 0000;
  3C03 : 0000;
  3C04 : 0000;
  3C05 : 51C8;
  3C06 : 5188;
  3C07 : 624A;
  3C08 : DE9A;
  3C09 : E71C;
  3C0A : E71C;
  3C0B : E71C;
  3C0C : E71C;
  3C0D : E71C;
  3C0E : E71C;
  3C0F : E71C;
  3C10 : E71C;
  3C11 : E71C;
  3C12 : E71C;
  3C13 : E71C;
  3C14 : E71C;
  3C15 : E71C;
  3C16 : E71C;
  3C17 : E71C;
  3C18 : E71C;
  3C19 : E71C;
  3C1A : E71C;
  3C1B : E71C;
  3C1C : E71C;
  3C1D : E71C;
  3C1E : E71C;
  3C1F : DE9A;
  3C20 : 622A;
  3C21 : 4126;
  3C22 : 838F;
  3C23 : E71C;
  3C24 : E71C;
  3C25 : E71C;
  3C26 : E71C;
  3C27 : E71C;
  3C28 : E71C;
  3C29 : E71C;
  3C2A : E71C;
  3C2B : E71C;
  3C2C : E71C;
  3C2D : E71C;
  3C2E : E71C;
  3C2F : E71C;
  3C30 : E71C;
  3C31 : E71C;
  3C32 : E71C;
  3C33 : E71C;
  3C34 : E71C;
  3C35 : E71C;
  3C36 : E71C;
  3C37 : E71C;
  3C38 : E71C;
  3C39 : E71C;
  3C3A : E71C;
  3C3B : E71C;
  3C3C : E71C;
  3C3D : E71C;
  3C3E : E71C;
  3C3F : E71C;
  3C40 : E71C;
  3C41 : E71C;
  3C42 : E71C;
  3C43 : E71C;
  3C44 : E71C;
  3C45 : E71C;
  3C46 : E71C;
  3C47 : E71C;
  3C48 : E71C;
  3C49 : E71C;
  3C4A : E71C;
  3C4B : E71C;
  3C4C : E71C;
  3C4D : E71C;
  3C4E : E71C;
  3C4F : E71C;
  3C50 : E71C;
  3C51 : E71C;
  3C52 : E71C;
  3C53 : E71C;
  3C54 : E71C;
  3C55 : E71C;
  3C56 : E71C;
  3C57 : E71C;
  3C58 : E71C;
  3C59 : E71C;
  3C5A : E71C;
  3C5B : E71C;
  3C5C : E71C;
  3C5D : E71C;
  3C5E : E71C;
  3C5F : E71C;
  3C60 : E71C;
  3C61 : E71C;
  3C62 : E71C;
  3C63 : E71C;
  3C64 : E71C;
  3C65 : 838F;
  3C66 : 4126;
  3C67 : 622A;
  3C68 : DE9A;
  3C69 : E71C;
  3C6A : E71C;
  3C6B : E71C;
  3C6C : E71C;
  3C6D : E71C;
  3C6E : E71C;
  3C6F : E71C;
  3C70 : E71C;
  3C71 : E71C;
  3C72 : E71C;
  3C73 : E71C;
  3C74 : E71C;
  3C75 : 838F;
  3C76 : 4967;
  3C77 : 51A8;
  3C78 : 51E9;
  3C79 : 0000;
  3C7A : 0000;
  3C7B : 0000;
  3C7C : 0000;
  3C7D : 0000;
  3C7E : 0000;
  3C7F : 0000;
  3C80 : 0000;
  3C81 : 0000;
  3C82 : 0000;
  3C83 : 0000;
  3C84 : 0000;
  3C85 : 0000;
  3C86 : 0000;
  3C87 : 0000;
  3C88 : 0000;
  3C89 : 0000;
  3C8A : 0000;
  3C8B : 0000;
  3C8C : 0000;
  3C8D : 0000;
  3C8E : 0000;
  3C8F : 0000;
  3C90 : 0000;
  3C91 : 0000;
  3C92 : 0000;
  3C93 : 0000;
  3C94 : 0000;
  3C95 : 51C8;
  3C96 : 5188;
  3C97 : 624A;
  3C98 : DE9A;
  3C99 : E71C;
  3C9A : E71C;
  3C9B : E71C;
  3C9C : E71C;
  3C9D : E71C;
  3C9E : E71C;
  3C9F : E71C;
  3CA0 : E71C;
  3CA1 : E71C;
  3CA2 : E71C;
  3CA3 : E71C;
  3CA4 : E71C;
  3CA5 : E71C;
  3CA6 : E71C;
  3CA7 : E71C;
  3CA8 : E71C;
  3CA9 : E71C;
  3CAA : B535;
  3CAB : 4967;
  3CAC : 4967;
  3CAD : B535;
  3CAE : E71C;
  3CAF : E71C;
  3CB0 : E71C;
  3CB1 : E71C;
  3CB2 : E71C;
  3CB3 : E71C;
  3CB4 : E71C;
  3CB5 : E71C;
  3CB6 : E71C;
  3CB7 : E71C;
  3CB8 : E71C;
  3CB9 : E71C;
  3CBA : E71C;
  3CBB : E71C;
  3CBC : E71C;
  3CBD : E71C;
  3CBE : E71C;
  3CBF : DE9A;
  3CC0 : 624A;
  3CC1 : 5188;
  3CC2 : 51C8;
  3CC3 : 0000;
  3CC4 : 0000;
  3CC5 : 0000;
  3CC6 : 0000;
  3CC7 : 0000;
  3CC8 : 0000;
  3CC9 : 0000;
  3CCA : 51A9;
  3CCB : 51C9;
  3CCC : 4967;
  3CCD : BD76;
  3CCE : E71C;
  3CCF : E71C;
  3CD0 : E71C;
  3CD1 : E71C;
  3CD2 : E71C;
  3CD3 : E71C;
  3CD4 : E71C;
  3CD5 : E71C;
  3CD6 : E71C;
  3CD7 : E71C;
  3CD8 : E71C;
  3CD9 : E71C;
  3CDA : B535;
  3CDB : 4988;
  3CDC : 51C9;
  3CDD : 51A9;
  3CDE : 0000;
  3CDF : 51E9;
  3CE0 : 51A8;
  3CE1 : 4967;
  3CE2 : 838F;
  3CE3 : E71C;
  3CE4 : E71C;
  3CE5 : E71C;
  3CE6 : E71C;
  3CE7 : E71C;
  3CE8 : E71C;
  3CE9 : E71C;
  3CEA : E71C;
  3CEB : E71C;
  3CEC : E71C;
  3CED : E71C;
  3CEE : E71C;
  3CEF : E71C;
  3CF0 : E71C;
  3CF1 : E71C;
  3CF2 : B535;
  3CF3 : 4988;
  3CF4 : 51C9;
  3CF5 : 51A8;
  3CF6 : 0000;
  3CF7 : 0000;
  3CF8 : 0000;
  3CF9 : 0000;
  3CFA : 0000;
  3CFB : 0000;
  3CFC : 0000;
  3CFD : 0000;
  3CFE : 0000;
  3CFF : 0000;
  3D00 : 0000;
  3D01 : 0000;
  3D02 : 0000;
  3D03 : 0000;
  3D04 : 0000;
  3D05 : 49E7;
  3D06 : 5188;
  3D07 : 5A2A;
  3D08 : 624B;
  3D09 : 6A6B;
  3D0A : 624B;
  3D0B : 624B;
  3D0C : 624B;
  3D0D : 624B;
  3D0E : 624B;
  3D0F : 624B;
  3D10 : 624B;
  3D11 : 624B;
  3D12 : 624B;
  3D13 : 624B;
  3D14 : 624B;
  3D15 : 624B;
  3D16 : 624B;
  3D17 : 624B;
  3D18 : 624B;
  3D19 : 624B;
  3D1A : 624B;
  3D1B : 624B;
  3D1C : 624B;
  3D1D : 624B;
  3D1E : 624B;
  3D1F : 624A;
  3D20 : 51C9;
  3D21 : 51A8;
  3D22 : 59E9;
  3D23 : 624B;
  3D24 : 624B;
  3D25 : 624B;
  3D26 : 624B;
  3D27 : 624B;
  3D28 : 624B;
  3D29 : 624B;
  3D2A : 624B;
  3D2B : 624B;
  3D2C : 624B;
  3D2D : 624B;
  3D2E : 624B;
  3D2F : 624B;
  3D30 : 624B;
  3D31 : 624B;
  3D32 : 624B;
  3D33 : 624B;
  3D34 : 624B;
  3D35 : 624B;
  3D36 : 624B;
  3D37 : 624B;
  3D38 : 624B;
  3D39 : 624B;
  3D3A : 624B;
  3D3B : 624B;
  3D3C : 624B;
  3D3D : 624B;
  3D3E : 624B;
  3D3F : 624B;
  3D40 : 624B;
  3D41 : 624B;
  3D42 : 624B;
  3D43 : 624B;
  3D44 : 624B;
  3D45 : 624B;
  3D46 : 624B;
  3D47 : 624B;
  3D48 : 624B;
  3D49 : 624B;
  3D4A : 624B;
  3D4B : 624B;
  3D4C : 624B;
  3D4D : 624B;
  3D4E : 624B;
  3D4F : 624B;
  3D50 : 624B;
  3D51 : 624B;
  3D52 : 624B;
  3D53 : 624B;
  3D54 : 624B;
  3D55 : 624B;
  3D56 : 624B;
  3D57 : 624B;
  3D58 : 624B;
  3D59 : 624B;
  3D5A : 624B;
  3D5B : 624B;
  3D5C : 624B;
  3D5D : 624B;
  3D5E : 624B;
  3D5F : 624B;
  3D60 : 624B;
  3D61 : 624B;
  3D62 : 624B;
  3D63 : 624B;
  3D64 : 624B;
  3D65 : 59E9;
  3D66 : 51A8;
  3D67 : 51C9;
  3D68 : 624A;
  3D69 : 624B;
  3D6A : 624B;
  3D6B : 624B;
  3D6C : 624B;
  3D6D : 624B;
  3D6E : 624B;
  3D6F : 624B;
  3D70 : 624B;
  3D71 : 624B;
  3D72 : 624B;
  3D73 : 624B;
  3D74 : 624B;
  3D75 : 59E9;
  3D76 : 51C9;
  3D77 : 51A8;
  3D78 : 51E9;
  3D79 : 0000;
  3D7A : 0000;
  3D7B : 0000;
  3D7C : 0000;
  3D7D : 0000;
  3D7E : 0000;
  3D7F : 0000;
  3D80 : 0000;
  3D81 : 0000;
  3D82 : 0000;
  3D83 : 0000;
  3D84 : 0000;
  3D85 : 0000;
  3D86 : 0000;
  3D87 : 0000;
  3D88 : 0000;
  3D89 : 0000;
  3D8A : 0000;
  3D8B : 0000;
  3D8C : 0000;
  3D8D : 0000;
  3D8E : 0000;
  3D8F : 0000;
  3D90 : 0000;
  3D91 : 0000;
  3D92 : 0000;
  3D93 : 0000;
  3D94 : 0000;
  3D95 : 49E7;
  3D96 : 5188;
  3D97 : 5A2A;
  3D98 : 624B;
  3D99 : 6A6B;
  3D9A : 624B;
  3D9B : 624B;
  3D9C : 624B;
  3D9D : 624B;
  3D9E : 624B;
  3D9F : 624B;
  3DA0 : 624B;
  3DA1 : 624B;
  3DA2 : 624B;
  3DA3 : 624B;
  3DA4 : 624B;
  3DA5 : 624B;
  3DA6 : 624B;
  3DA7 : 624B;
  3DA8 : 624B;
  3DA9 : 624B;
  3DAA : 5A2A;
  3DAB : 51A8;
  3DAC : 51A8;
  3DAD : 5A2A;
  3DAE : 624B;
  3DAF : 624B;
  3DB0 : 624B;
  3DB1 : 624B;
  3DB2 : 624B;
  3DB3 : 624B;
  3DB4 : 624B;
  3DB5 : 624B;
  3DB6 : 624B;
  3DB7 : 624B;
  3DB8 : 624B;
  3DB9 : 624B;
  3DBA : 624B;
  3DBB : 624B;
  3DBC : 624B;
  3DBD : 624B;
  3DBE : 6A6B;
  3DBF : 624B;
  3DC0 : 5A2A;
  3DC1 : 5188;
  3DC2 : 49E7;
  3DC3 : 0000;
  3DC4 : 0000;
  3DC5 : 0000;
  3DC6 : 0000;
  3DC7 : 0000;
  3DC8 : 0000;
  3DC9 : 0000;
  3DCA : 51C7;
  3DCB : 51E8;
  3DCC : 4187;
  3DCD : 624A;
  3DCE : 6A6B;
  3DCF : 624B;
  3DD0 : 624B;
  3DD1 : 624B;
  3DD2 : 624B;
  3DD3 : 624B;
  3DD4 : 624B;
  3DD5 : 624B;
  3DD6 : 624B;
  3DD7 : 624B;
  3DD8 : 624B;
  3DD9 : 624B;
  3DDA : 5A2A;
  3DDB : 51A8;
  3DDC : 59C9;
  3DDD : 51A9;
  3DDE : 0000;
  3DDF : 51E9;
  3DE0 : 51A8;
  3DE1 : 51C9;
  3DE2 : 59E9;
  3DE3 : 624B;
  3DE4 : 624B;
  3DE5 : 624B;
  3DE6 : 624B;
  3DE7 : 624B;
  3DE8 : 624B;
  3DE9 : 624B;
  3DEA : 624B;
  3DEB : 624B;
  3DEC : 624B;
  3DED : 624B;
  3DEE : 624B;
  3DEF : 624B;
  3DF0 : 624B;
  3DF1 : 624B;
  3DF2 : 5A2A;
  3DF3 : 51A8;
  3DF4 : 59C9;
  3DF5 : 51A8;
  3DF6 : 0000;
  3DF7 : 0000;
  3DF8 : 0000;
  3DF9 : 0000;
  3DFA : 0000;
  3DFB : 0000;
  3DFC : 0000;
  3DFD : 0000;
  3DFE : 0000;
  3DFF : 0000;
  3E00 : 0000;
  3E01 : 0000;
  3E02 : 0000;
  3E03 : 0000;
  3E04 : 0000;
  3E05 : 0000;
  3E06 : 0000;
  3E07 : 38E3;
  3E08 : 4947;
  3E09 : 4968;
  3E0A : 4967;
  3E0B : 4967;
  3E0C : 4967;
  3E0D : 4967;
  3E0E : 4967;
  3E0F : 4967;
  3E10 : 4967;
  3E11 : 4967;
  3E12 : 4967;
  3E13 : 4967;
  3E14 : 4967;
  3E15 : 4967;
  3E16 : 4967;
  3E17 : 4967;
  3E18 : 4967;
  3E19 : 4967;
  3E1A : 4967;
  3E1B : 4967;
  3E1C : 4967;
  3E1D : 4967;
  3E1E : 4967;
  3E1F : 4967;
  3E20 : 51A8;
  3E21 : 51C9;
  3E22 : 51A8;
  3E23 : 4967;
  3E24 : 4967;
  3E25 : 4967;
  3E26 : 4967;
  3E27 : 4967;
  3E28 : 4967;
  3E29 : 4967;
  3E2A : 4967;
  3E2B : 4967;
  3E2C : 4967;
  3E2D : 4967;
  3E2E : 4967;
  3E2F : 4967;
  3E30 : 4967;
  3E31 : 4967;
  3E32 : 4967;
  3E33 : 4967;
  3E34 : 4967;
  3E35 : 4967;
  3E36 : 4967;
  3E37 : 4967;
  3E38 : 4967;
  3E39 : 4967;
  3E3A : 4967;
  3E3B : 4967;
  3E3C : 4967;
  3E3D : 4967;
  3E3E : 4967;
  3E3F : 4967;
  3E40 : 4967;
  3E41 : 4967;
  3E42 : 4967;
  3E43 : 4967;
  3E44 : 4967;
  3E45 : 4967;
  3E46 : 4967;
  3E47 : 4967;
  3E48 : 4967;
  3E49 : 4967;
  3E4A : 4967;
  3E4B : 4967;
  3E4C : 4967;
  3E4D : 4967;
  3E4E : 4967;
  3E4F : 4967;
  3E50 : 4967;
  3E51 : 4967;
  3E52 : 4967;
  3E53 : 4967;
  3E54 : 4967;
  3E55 : 4967;
  3E56 : 4967;
  3E57 : 4967;
  3E58 : 4967;
  3E59 : 4967;
  3E5A : 4967;
  3E5B : 4967;
  3E5C : 4967;
  3E5D : 4967;
  3E5E : 4967;
  3E5F : 4967;
  3E60 : 4967;
  3E61 : 4967;
  3E62 : 4967;
  3E63 : 4967;
  3E64 : 4967;
  3E65 : 51A8;
  3E66 : 51C9;
  3E67 : 51A8;
  3E68 : 4967;
  3E69 : 4967;
  3E6A : 4967;
  3E6B : 4967;
  3E6C : 4967;
  3E6D : 4967;
  3E6E : 4967;
  3E6F : 4967;
  3E70 : 4967;
  3E71 : 4967;
  3E72 : 4967;
  3E73 : 4967;
  3E74 : 4967;
  3E75 : 51A8;
  3E76 : 59C9;
  3E77 : 51A8;
  3E78 : 51E9;
  3E79 : 0000;
  3E7A : 0000;
  3E7B : 0000;
  3E7C : 0000;
  3E7D : 0000;
  3E7E : 0000;
  3E7F : 0000;
  3E80 : 0000;
  3E81 : 0000;
  3E82 : 0000;
  3E83 : 0000;
  3E84 : 0000;
  3E85 : 0000;
  3E86 : 0000;
  3E87 : 0000;
  3E88 : 0000;
  3E89 : 0000;
  3E8A : 0000;
  3E8B : 0000;
  3E8C : 0000;
  3E8D : 0000;
  3E8E : 0000;
  3E8F : 0000;
  3E90 : 0000;
  3E91 : 0000;
  3E92 : 0000;
  3E93 : 0000;
  3E94 : 0000;
  3E95 : 0000;
  3E96 : 0000;
  3E97 : 38E3;
  3E98 : 4947;
  3E99 : 4968;
  3E9A : 4967;
  3E9B : 4967;
  3E9C : 4967;
  3E9D : 4967;
  3E9E : 4967;
  3E9F : 4967;
  3EA0 : 4967;
  3EA1 : 4967;
  3EA2 : 4967;
  3EA3 : 4967;
  3EA4 : 4967;
  3EA5 : 4967;
  3EA6 : 4967;
  3EA7 : 4967;
  3EA8 : 4967;
  3EA9 : 4967;
  3EAA : 4988;
  3EAB : 51C9;
  3EAC : 51C9;
  3EAD : 4988;
  3EAE : 4967;
  3EAF : 4967;
  3EB0 : 4967;
  3EB1 : 4967;
  3EB2 : 4967;
  3EB3 : 4967;
  3EB4 : 4967;
  3EB5 : 4967;
  3EB6 : 4967;
  3EB7 : 4967;
  3EB8 : 4967;
  3EB9 : 4967;
  3EBA : 4967;
  3EBB : 4967;
  3EBC : 4967;
  3EBD : 4967;
  3EBE : 4968;
  3EBF : 4947;
  3EC0 : 38E3;
  3EC1 : 0000;
  3EC2 : 0000;
  3EC3 : 0000;
  3EC4 : 0000;
  3EC5 : 0000;
  3EC6 : 0000;
  3EC7 : 0000;
  3EC8 : 0000;
  3EC9 : 0000;
  3ECA : 0000;
  3ECB : 0000;
  3ECC : 0000;
  3ECD : 4967;
  3ECE : 5188;
  3ECF : 4967;
  3ED0 : 4967;
  3ED1 : 4967;
  3ED2 : 4967;
  3ED3 : 4967;
  3ED4 : 4967;
  3ED5 : 4967;
  3ED6 : 4967;
  3ED7 : 4967;
  3ED8 : 4967;
  3ED9 : 4967;
  3EDA : 4988;
  3EDB : 51C8;
  3EDC : 59C9;
  3EDD : 51A9;
  3EDE : 0000;
  3EDF : 51E9;
  3EE0 : 51A8;
  3EE1 : 59C9;
  3EE2 : 51A8;
  3EE3 : 4967;
  3EE4 : 4967;
  3EE5 : 4967;
  3EE6 : 4967;
  3EE7 : 4967;
  3EE8 : 4967;
  3EE9 : 4967;
  3EEA : 4967;
  3EEB : 4967;
  3EEC : 4967;
  3EED : 4967;
  3EEE : 4967;
  3EEF : 4967;
  3EF0 : 4967;
  3EF1 : 4967;
  3EF2 : 4988;
  3EF3 : 51C8;
  3EF4 : 59C9;
  3EF5 : 51A8;
  3EF6 : 0000;
  3EF7 : 0000;
  3EF8 : 0000;
  3EF9 : 0000;
  3EFA : 0000;
  3EFB : 0000;
  3EFC : 0000;
  3EFD : 0000;
  3EFE : 0000;
  3EFF : 0000;
  3F00 : 0000;
  3F01 : 0000;
  3F02 : 0000;
  3F03 : 0000;
  3F04 : 0000;
  3F05 : 0000;
  3F06 : 0000;
  3F07 : 51E9;
  3F08 : 51A8;
  3F09 : 59C9;
  3F0A : 51C8;
  3F0B : 51C8;
  3F0C : 51C8;
  3F0D : 51C8;
  3F0E : 51C8;
  3F0F : 51C8;
  3F10 : 51C8;
  3F11 : 51C8;
  3F12 : 51C8;
  3F13 : 51C8;
  3F14 : 51C8;
  3F15 : 51C8;
  3F16 : 51C8;
  3F17 : 51C8;
  3F18 : 51C8;
  3F19 : 51C8;
  3F1A : 51C8;
  3F1B : 51C8;
  3F1C : 51C8;
  3F1D : 51C8;
  3F1E : 51C8;
  3F1F : 51C8;
  3F20 : 51C8;
  3F21 : 51C8;
  3F22 : 51C8;
  3F23 : 51C8;
  3F24 : 51C8;
  3F25 : 51C8;
  3F26 : 51C8;
  3F27 : 51C8;
  3F28 : 51C8;
  3F29 : 51C8;
  3F2A : 51C8;
  3F2B : 51C8;
  3F2C : 51C8;
  3F2D : 51C8;
  3F2E : 51C8;
  3F2F : 51C8;
  3F30 : 51C8;
  3F31 : 51C8;
  3F32 : 51C8;
  3F33 : 51C8;
  3F34 : 51C8;
  3F35 : 51C8;
  3F36 : 51C8;
  3F37 : 51C8;
  3F38 : 51C8;
  3F39 : 51C8;
  3F3A : 51C8;
  3F3B : 51C8;
  3F3C : 51C8;
  3F3D : 51C8;
  3F3E : 51C8;
  3F3F : 51C8;
  3F40 : 51C8;
  3F41 : 51C8;
  3F42 : 51C8;
  3F43 : 51C8;
  3F44 : 51C8;
  3F45 : 51C8;
  3F46 : 51C8;
  3F47 : 51C8;
  3F48 : 51C8;
  3F49 : 51C8;
  3F4A : 51C8;
  3F4B : 51C8;
  3F4C : 51C8;
  3F4D : 51C8;
  3F4E : 51C8;
  3F4F : 51C8;
  3F50 : 51C8;
  3F51 : 51C8;
  3F52 : 51C8;
  3F53 : 51C8;
  3F54 : 51C8;
  3F55 : 51C8;
  3F56 : 51C8;
  3F57 : 51C8;
  3F58 : 51C8;
  3F59 : 51C8;
  3F5A : 51C8;
  3F5B : 51C8;
  3F5C : 51C8;
  3F5D : 51C8;
  3F5E : 51C8;
  3F5F : 51C8;
  3F60 : 51C8;
  3F61 : 51C8;
  3F62 : 51C8;
  3F63 : 51C8;
  3F64 : 51C8;
  3F65 : 51C8;
  3F66 : 51C8;
  3F67 : 51C8;
  3F68 : 51C8;
  3F69 : 51C8;
  3F6A : 51C8;
  3F6B : 51C8;
  3F6C : 51C8;
  3F6D : 51C8;
  3F6E : 51C8;
  3F6F : 51C8;
  3F70 : 51C8;
  3F71 : 51C8;
  3F72 : 51C8;
  3F73 : 51C8;
  3F74 : 51C8;
  3F75 : 51C8;
  3F76 : 59C9;
  3F77 : 51A8;
  3F78 : 51E9;
  3F79 : 0000;
  3F7A : 0000;
  3F7B : 0000;
  3F7C : 0000;
  3F7D : 0000;
  3F7E : 0000;
  3F7F : 0000;
  3F80 : 0000;
  3F81 : 0000;
  3F82 : 0000;
  3F83 : 0000;
  3F84 : 0000;
  3F85 : 0000;
  3F86 : 0000;
  3F87 : 0000;
  3F88 : 0000;
  3F89 : 0000;
  3F8A : 0000;
  3F8B : 0000;
  3F8C : 0000;
  3F8D : 0000;
  3F8E : 0000;
  3F8F : 0000;
  3F90 : 0000;
  3F91 : 0000;
  3F92 : 0000;
  3F93 : 0000;
  3F94 : 0000;
  3F95 : 0000;
  3F96 : 0000;
  3F97 : 51E9;
  3F98 : 51A8;
  3F99 : 59C9;
  3F9A : 51C8;
  3F9B : 51C8;
  3F9C : 51C8;
  3F9D : 51C8;
  3F9E : 51C8;
  3F9F : 51C8;
  3FA0 : 51C8;
  3FA1 : 51C8;
  3FA2 : 51C8;
  3FA3 : 51C8;
  3FA4 : 51C8;
  3FA5 : 51C8;
  3FA6 : 51C8;
  3FA7 : 51C8;
  3FA8 : 51C8;
  3FA9 : 51C8;
  3FAA : 51C8;
  3FAB : 51C8;
  3FAC : 51C8;
  3FAD : 51C8;
  3FAE : 51C8;
  3FAF : 51C8;
  3FB0 : 51C8;
  3FB1 : 51C8;
  3FB2 : 51C8;
  3FB3 : 51C8;
  3FB4 : 51C8;
  3FB5 : 51C8;
  3FB6 : 51C8;
  3FB7 : 51C8;
  3FB8 : 51C8;
  3FB9 : 51C8;
  3FBA : 51C8;
  3FBB : 51C8;
  3FBC : 51C8;
  3FBD : 51C8;
  3FBE : 59C9;
  3FBF : 51A8;
  3FC0 : 51E9;
  3FC1 : 0000;
  3FC2 : 0000;
  3FC3 : 0000;
  3FC4 : 0000;
  3FC5 : 0000;
  3FC6 : 0000;
  3FC7 : 0000;
  3FC8 : 0000;
  3FC9 : 0000;
  3FCA : 0000;
  3FCB : 0000;
  3FCC : 0000;
  3FCD : 51C8;
  3FCE : 59E9;
  3FCF : 51C8;
  3FD0 : 51C8;
  3FD1 : 51C8;
  3FD2 : 51C8;
  3FD3 : 51C8;
  3FD4 : 51C8;
  3FD5 : 51C8;
  3FD6 : 51C8;
  3FD7 : 51C8;
  3FD8 : 51C8;
  3FD9 : 51C8;
  3FDA : 51C8;
  3FDB : 51C8;
  3FDC : 59C9;
  3FDD : 51A9;
  3FDE : 0000;
  3FDF : 51E9;
  3FE0 : 51A8;
  3FE1 : 59C9;
  3FE2 : 51C8;
  3FE3 : 51C8;
  3FE4 : 51C8;
  3FE5 : 51C8;
  3FE6 : 51C8;
  3FE7 : 51C8;
  3FE8 : 51C8;
  3FE9 : 51C8;
  3FEA : 51C8;
  3FEB : 51C8;
  3FEC : 51C8;
  3FED : 51C8;
  3FEE : 51C8;
  3FEF : 51C8;
  3FF0 : 51C8;
  3FF1 : 51C8;
  3FF2 : 51C8;
  3FF3 : 51C8;
  3FF4 : 59C9;
  3FF5 : 51A8;
  3FF6 : 0000;
  3FF7 : 0000;
  3FF8 : 0000;
  3FF9 : 0000;
  3FFA : 0000;
  3FFB : 0000;
  3FFC : 0000;
  3FFD : 0000;
  3FFE : 0000;
  3FFF : 0000;
END;
