DEPTH = 8192;
WIDTH = 16;

ADDRESS_RADIX = HEX;
DATA_RADIX = HEX;

CONTENT BEGIN
  00 : 5619;
  01 : 5619;
  02 : 5619;
  03 : 4E19;
  04 : 4E19;
  05 : 4E19;
  06 : 4E19;
  07 : 4E19;
  08 : 4E19;
  09 : 4E19;
  0A : 4E19;
  0B : 4DF9;
  0C : 4DF9;
  0D : 4E19;
  0E : 4E19;
  0F : 4E19;
  10 : 4E19;
  11 : 4E19;
  12 : 4E19;
  13 : 4E19;
  14 : 4E19;
  15 : 4E19;
  16 : 4E19;
  17 : 4E19;
  18 : 4E19;
  19 : 4E19;
  1A : 4E19;
  1B : 4E19;
  1C : 4E19;
  1D : 4E19;
  1E : 4E19;
  1F : 4E19;
  20 : 4E19;
  21 : 4E19;
  22 : 4E19;
  23 : 4E19;
  24 : 4E19;
  25 : 4E19;
  26 : 4E19;
  27 : 4E19;
  28 : 4E19;
  29 : 4E19;
  2A : 4E19;
  2B : 4E19;
  2C : 4E19;
  2D : 4E19;
  2E : 4E19;
  2F : 4E19;
  30 : 4E19;
  31 : 4E19;
  32 : 4E19;
  33 : 4E19;
  34 : 4E19;
  35 : 4E19;
  36 : 4E19;
  37 : 4DF9;
  38 : 4DF9;
  39 : 4DF9;
  3A : 4E19;
  3B : 4DF9;
  3C : 4DF9;
  3D : 4DF9;
  3E : 4DF9;
  3F : 4DF9;
  40 : 5DF8;
  41 : 55F8;
  42 : 5619;
  43 : 5618;
  44 : 4E19;
  45 : 5619;
  46 : 4DF8;
  47 : 4DF9;
  48 : 4DF9;
  49 : 4DF9;
  4A : 4E19;
  4B : 4DF9;
  4C : 4DF9;
  4D : 4E19;
  4E : 4E19;
  4F : 4E19;
  50 : 4E19;
  51 : 4E19;
  52 : 4E19;
  53 : 4E19;
  54 : 4E19;
  55 : 4E19;
  56 : 4E19;
  57 : 4E19;
  58 : 4E19;
  59 : 4E19;
  5A : 4E19;
  5B : 4E19;
  5C : 4E19;
  5D : 4E19;
  5E : 4E19;
  5F : 4E19;
  60 : 4E19;
  61 : 4E19;
  62 : 4E19;
  63 : 4E19;
  64 : 4E19;
  65 : 4E19;
  66 : 4E19;
  67 : 4E19;
  68 : 4E19;
  69 : 4E19;
  6A : 4E19;
  6B : 4E19;
  6C : 4E19;
  6D : 4E19;
  6E : 4E19;
  6F : 4E19;
  70 : 4E19;
  71 : 4E19;
  72 : 4E19;
  73 : 4E19;
  74 : 4E19;
  75 : 4E19;
  76 : 4E19;
  77 : 4DF9;
  78 : 4DF9;
  79 : 4DF9;
  7A : 4E19;
  7B : 4E19;
  7C : 4E19;
  7D : 4DF9;
  7E : 4DF9;
  7F : 6639;
  80 : 7E78;
  81 : 7E59;
  82 : 5E39;
  83 : 5638;
  84 : 5619;
  85 : 5619;
  86 : 5618;
  87 : 55F9;
  88 : 4DF9;
  89 : 4DF9;
  8A : 4E19;
  8B : 4DF9;
  8C : 4DF9;
  8D : 4E19;
  8E : 4E19;
  8F : 4E19;
  90 : 4E19;
  91 : 4E19;
  92 : 4E19;
  93 : 4E19;
  94 : 4E19;
  95 : 4E19;
  96 : 4E19;
  97 : 4E19;
  98 : 4E19;
  99 : 4E19;
  9A : 4E19;
  9B : 4E19;
  9C : 4E19;
  9D : 4E19;
  9E : 4E19;
  9F : 4E19;
  A0 : 4E19;
  A1 : 4E19;
  A2 : 4E19;
  A3 : 4E19;
  A4 : 4E19;
  A5 : 4E19;
  A6 : 4E19;
  A7 : 4E19;
  A8 : 4E19;
  A9 : 4E19;
  AA : 4E19;
  AB : 4E19;
  AC : 4E19;
  AD : 4E19;
  AE : 4E19;
  AF : 4E19;
  B0 : 4E19;
  B1 : 4E19;
  B2 : 4E19;
  B3 : 4E19;
  B4 : 4E19;
  B5 : 4E19;
  B6 : 4E19;
  B7 : 4DF9;
  B8 : 4DF9;
  B9 : 4DF9;
  BA : 4E19;
  BB : 4E19;
  BC : 4DF9;
  BD : 4DF9;
  BE : 6659;
  BF : 9F1A;
  C0 : B73A;
  C1 : B73A;
  C2 : 7679;
  C3 : 5E38;
  C4 : 6619;
  C5 : 5E19;
  C6 : 5619;
  C7 : 5619;
  C8 : 4E19;
  C9 : 4E19;
  CA : 4E19;
  CB : 4DF9;
  CC : 4DF9;
  CD : 4E19;
  CE : 4E19;
  CF : 4E19;
  D0 : 4E19;
  D1 : 4E19;
  D2 : 4E19;
  D3 : 4E19;
  D4 : 4E19;
  D5 : 4E19;
  D6 : 4E19;
  D7 : 4E19;
  D8 : 4E19;
  D9 : 4E19;
  DA : 4E19;
  DB : 4E19;
  DC : 4E19;
  DD : 4E19;
  DE : 4E19;
  DF : 4E19;
  E0 : 4E19;
  E1 : 4E19;
  E2 : 4E19;
  E3 : 4E19;
  E4 : 4E19;
  E5 : 4E19;
  E6 : 4E19;
  E7 : 4E19;
  E8 : 4E19;
  E9 : 4E19;
  EA : 4E19;
  EB : 4E19;
  EC : 4E19;
  ED : 4E19;
  EE : 4E19;
  EF : 4E19;
  F0 : 4E19;
  F1 : 4E19;
  F2 : 4E19;
  F3 : 4E19;
  F4 : 4E19;
  F5 : 4E19;
  F6 : 4E19;
  F7 : 4DF9;
  F8 : 4DF9;
  F9 : 4DF9;
  FA : 4E19;
  FB : 4E19;
  FC : 5619;
  FD : 6659;
  FE : 9EFA;
  FF : EFFB;
  100 : D7BB;
  101 : D7BB;
  102 : 8698;
  103 : 6E18;
  104 : 7618;
  105 : 6619;
  106 : 4E39;
  107 : 5619;
  108 : 4E19;
  109 : 4E19;
  10A : 4E19;
  10B : 4DF9;
  10C : 4DF9;
  10D : 4DF9;
  10E : 4E19;
  10F : 4E19;
  110 : 4E19;
  111 : 4E19;
  112 : 4E19;
  113 : 4E19;
  114 : 4E19;
  115 : 4E19;
  116 : 4E19;
  117 : 4E19;
  118 : 4E19;
  119 : 4E19;
  11A : 4E19;
  11B : 4E19;
  11C : 4E19;
  11D : 4E19;
  11E : 4E19;
  11F : 4E19;
  120 : 4E19;
  121 : 4E19;
  122 : 4E19;
  123 : 4E19;
  124 : 4E19;
  125 : 4E19;
  126 : 4E19;
  127 : 4E19;
  128 : 4E19;
  129 : 4E19;
  12A : 4E19;
  12B : 4E19;
  12C : 4E19;
  12D : 4E19;
  12E : 4E19;
  12F : 4E19;
  130 : 4E19;
  131 : 4E19;
  132 : 4E19;
  133 : 4E19;
  134 : 4E19;
  135 : 4DF9;
  136 : 4DF9;
  137 : 4DF9;
  138 : 55F9;
  139 : 4DF9;
  13A : 4E19;
  13B : 4DF9;
  13C : 7659;
  13D : B73A;
  13E : CF9B;
  13F : DFBA;
  140 : DFBB;
  141 : DFDB;
  142 : B739;
  143 : A6F9;
  144 : AEDA;
  145 : 8EDA;
  146 : 5E39;
  147 : 5E19;
  148 : 5619;
  149 : 5619;
  14A : 4E19;
  14B : 4E19;
  14C : 4DF9;
  14D : 4DF9;
  14E : 4E19;
  14F : 4E19;
  150 : 4E19;
  151 : 4E19;
  152 : 4E19;
  153 : 4E19;
  154 : 4E19;
  155 : 4E19;
  156 : 4E19;
  157 : 4E19;
  158 : 4E19;
  159 : 4E19;
  15A : 4E19;
  15B : 4E19;
  15C : 4E19;
  15D : 4E19;
  15E : 4E19;
  15F : 4E19;
  160 : 4E19;
  161 : 4E19;
  162 : 4E19;
  163 : 4E19;
  164 : 4E19;
  165 : 4E19;
  166 : 4E19;
  167 : 4E19;
  168 : 4E19;
  169 : 4E19;
  16A : 4E19;
  16B : 4E19;
  16C : 4E19;
  16D : 4E19;
  16E : 4E19;
  16F : 4E19;
  170 : 4E19;
  171 : 4E19;
  172 : 4E19;
  173 : 4E19;
  174 : 4DF9;
  175 : 4DF9;
  176 : 4DF9;
  177 : 4DF9;
  178 : 4DF9;
  179 : 4E19;
  17A : 5619;
  17B : 86B9;
  17C : B73A;
  17D : D79A;
  17E : E7DB;
  17F : E7DB;
  180 : E7DA;
  181 : DFDB;
  182 : D7BA;
  183 : CF9B;
  184 : D79B;
  185 : AF5A;
  186 : 6E59;
  187 : 6E18;
  188 : 5E38;
  189 : 5E19;
  18A : 5619;
  18B : 5619;
  18C : 55F9;
  18D : 4DF9;
  18E : 4E19;
  18F : 4E19;
  190 : 4E19;
  191 : 4E19;
  192 : 4E19;
  193 : 4E19;
  194 : 4E19;
  195 : 4E19;
  196 : 4E19;
  197 : 4E19;
  198 : 4E19;
  199 : 4E19;
  19A : 4E19;
  19B : 4E19;
  19C : 4E19;
  19D : 4E19;
  19E : 4E19;
  19F : 4E19;
  1A0 : 4E19;
  1A1 : 4E19;
  1A2 : 4E19;
  1A3 : 4E19;
  1A4 : 4E19;
  1A5 : 4E19;
  1A6 : 4E19;
  1A7 : 4E19;
  1A8 : 4E19;
  1A9 : 4E19;
  1AA : 4E19;
  1AB : 4E19;
  1AC : 4E19;
  1AD : 4E19;
  1AE : 4E19;
  1AF : 4E19;
  1B0 : 4E19;
  1B1 : 4E19;
  1B2 : 4E19;
  1B3 : 4E19;
  1B4 : 4DF9;
  1B5 : 4DF9;
  1B6 : 4DF9;
  1B7 : 55F9;
  1B8 : 55F9;
  1B9 : 5E19;
  1BA : 7E99;
  1BB : BF5A;
  1BC : DFBB;
  1BD : DFBA;
  1BE : E7DB;
  1BF : E7DB;
  1C0 : E7DA;
  1C1 : E7DB;
  1C2 : E7DB;
  1C3 : DFDB;
  1C4 : E7BA;
  1C5 : C79A;
  1C6 : 8E99;
  1C7 : 8659;
  1C8 : 7E78;
  1C9 : 6E59;
  1CA : 5619;
  1CB : 5619;
  1CC : 55F9;
  1CD : 4DF9;
  1CE : 4E19;
  1CF : 4E19;
  1D0 : 4E19;
  1D1 : 4E19;
  1D2 : 4E19;
  1D3 : 4E19;
  1D4 : 4E19;
  1D5 : 4E19;
  1D6 : 4E19;
  1D7 : 4E19;
  1D8 : 4E19;
  1D9 : 4E19;
  1DA : 4E19;
  1DB : 4E19;
  1DC : 4E19;
  1DD : 4E19;
  1DE : 4E19;
  1DF : 4E19;
  1E0 : 4E19;
  1E1 : 4E19;
  1E2 : 4E19;
  1E3 : 4E19;
  1E4 : 4E19;
  1E5 : 4E19;
  1E6 : 4E19;
  1E7 : 4E19;
  1E8 : 4E19;
  1E9 : 4E19;
  1EA : 4E19;
  1EB : 4E19;
  1EC : 4E19;
  1ED : 4E19;
  1EE : 4E19;
  1EF : 4E19;
  1F0 : 4E19;
  1F1 : 4E19;
  1F2 : 4E19;
  1F3 : 4E19;
  1F4 : 4DF9;
  1F5 : 4DF9;
  1F6 : 4E19;
  1F7 : 55F9;
  1F8 : 6639;
  1F9 : 8E78;
  1FA : BF3A;
  1FB : DFBA;
  1FC : DFDB;
  1FD : E7BA;
  1FE : E7DB;
  1FF : EFFB;
  200 : E7DB;
  201 : E7DA;
  202 : E7DB;
  203 : E7DB;
  204 : E7DA;
  205 : D7BA;
  206 : CF7A;
  207 : C73B;
  208 : BF5A;
  209 : 8EFA;
  20A : 5E19;
  20B : 5619;
  20C : 5619;
  20D : 4E19;
  20E : 55F9;
  20F : 4DF9;
  210 : 4DF9;
  211 : 4E19;
  212 : 4DF9;
  213 : 4E19;
  214 : 4E19;
  215 : 4E19;
  216 : 4E19;
  217 : 4E19;
  218 : 4E19;
  219 : 4E19;
  21A : 4E19;
  21B : 4E19;
  21C : 4E19;
  21D : 4E19;
  21E : 4E19;
  21F : 4E19;
  220 : 4E19;
  221 : 4E19;
  222 : 4E19;
  223 : 4E19;
  224 : 4E19;
  225 : 4E19;
  226 : 4E19;
  227 : 4E19;
  228 : 4E19;
  229 : 4E19;
  22A : 4E19;
  22B : 4E19;
  22C : 4E19;
  22D : 4E19;
  22E : 4E19;
  22F : 4DF9;
  230 : 4DF9;
  231 : 4E19;
  232 : 4E19;
  233 : 4E19;
  234 : 55F9;
  235 : 5619;
  236 : 4E19;
  237 : 55F8;
  238 : 9ED9;
  239 : D79A;
  23A : D79B;
  23B : DF9A;
  23C : E7DB;
  23D : E7DB;
  23E : EFFB;
  23F : EFFB;
  240 : E7DB;
  241 : E7DA;
  242 : E7DB;
  243 : E7DA;
  244 : E7DA;
  245 : E7DB;
  246 : DFBB;
  247 : DFBB;
  248 : DFBB;
  249 : A73B;
  24A : 6E59;
  24B : 5E39;
  24C : 5619;
  24D : 4E19;
  24E : 4E19;
  24F : 4DF9;
  250 : 4E19;
  251 : 4DF9;
  252 : 4DF9;
  253 : 4E19;
  254 : 4E19;
  255 : 4E19;
  256 : 4E19;
  257 : 4E19;
  258 : 4E19;
  259 : 4E19;
  25A : 4E19;
  25B : 4E19;
  25C : 4E19;
  25D : 4E19;
  25E : 4E19;
  25F : 4E19;
  260 : 4E19;
  261 : 4E19;
  262 : 4E19;
  263 : 4E19;
  264 : 4E19;
  265 : 4E19;
  266 : 4E19;
  267 : 4E19;
  268 : 4E19;
  269 : 4E19;
  26A : 4E19;
  26B : 4E19;
  26C : 4E19;
  26D : 4E19;
  26E : 4DF9;
  26F : 4DF9;
  270 : 4DF9;
  271 : 4DF9;
  272 : 4DF9;
  273 : 4E19;
  274 : 4E19;
  275 : 5619;
  276 : 5E19;
  277 : 7E38;
  278 : BF39;
  279 : DFBA;
  27A : DFBB;
  27B : E7BA;
  27C : E7DA;
  27D : E7DB;
  27E : EFFB;
  27F : E7DB;
  280 : E7DB;
  281 : E7DA;
  282 : E7DB;
  283 : E7DA;
  284 : E7DA;
  285 : E7DB;
  286 : E7DB;
  287 : E7BB;
  288 : DFDB;
  289 : C77B;
  28A : 9ED9;
  28B : 7679;
  28C : 5E19;
  28D : 5639;
  28E : 4E19;
  28F : 4E19;
  290 : 4E19;
  291 : 4DF9;
  292 : 4DF9;
  293 : 4E19;
  294 : 4E19;
  295 : 4E19;
  296 : 4E19;
  297 : 4E19;
  298 : 4E19;
  299 : 4E19;
  29A : 4E19;
  29B : 4E19;
  29C : 4E19;
  29D : 4E19;
  29E : 4E19;
  29F : 4E19;
  2A0 : 4E19;
  2A1 : 4E19;
  2A2 : 4E19;
  2A3 : 4E19;
  2A4 : 4E19;
  2A5 : 4E19;
  2A6 : 4E19;
  2A7 : 4E19;
  2A8 : 4E19;
  2A9 : 4E19;
  2AA : 4E19;
  2AB : 4E19;
  2AC : 4E19;
  2AD : 4E19;
  2AE : 4DF9;
  2AF : 4DF9;
  2B0 : 4DF9;
  2B1 : 4DF9;
  2B2 : 55F9;
  2B3 : 5619;
  2B4 : 5618;
  2B5 : 5E19;
  2B6 : 8E99;
  2B7 : AEF9;
  2B8 : CF7A;
  2B9 : DFBA;
  2BA : E7DB;
  2BB : E7DA;
  2BC : EFDB;
  2BD : E7FB;
  2BE : E7FB;
  2BF : E7DB;
  2C0 : E7DB;
  2C1 : E7DA;
  2C2 : E7FB;
  2C3 : E7FB;
  2C4 : E7DA;
  2C5 : E7DB;
  2C6 : E7DB;
  2C7 : E7DA;
  2C8 : DFDA;
  2C9 : DFBB;
  2CA : D7BA;
  2CB : 8ED9;
  2CC : 6E19;
  2CD : 5E39;
  2CE : 5619;
  2CF : 4E19;
  2D0 : 4E19;
  2D1 : 4DF9;
  2D2 : 4DF9;
  2D3 : 4E19;
  2D4 : 4E19;
  2D5 : 4E19;
  2D6 : 4E19;
  2D7 : 4E19;
  2D8 : 4E19;
  2D9 : 4E19;
  2DA : 4E19;
  2DB : 4E19;
  2DC : 4E19;
  2DD : 4E19;
  2DE : 4E19;
  2DF : 4E19;
  2E0 : 4E19;
  2E1 : 4E19;
  2E2 : 4E19;
  2E3 : 4E19;
  2E4 : 4E19;
  2E5 : 4E19;
  2E6 : 4E19;
  2E7 : 4E19;
  2E8 : 4E19;
  2E9 : 4E19;
  2EA : 4E19;
  2EB : 4E19;
  2EC : 4E19;
  2ED : 4E19;
  2EE : 4DF9;
  2EF : 4DF9;
  2F0 : 4DF9;
  2F1 : 5619;
  2F2 : 5619;
  2F3 : 5619;
  2F4 : 6618;
  2F5 : 6E18;
  2F6 : C759;
  2F7 : DFBA;
  2F8 : DFBB;
  2F9 : DFBA;
  2FA : E7DB;
  2FB : E7DB;
  2FC : EFDB;
  2FD : EFFB;
  2FE : E7DB;
  2FF : E7DB;
  300 : EFFB;
  301 : EFFB;
  302 : E7FB;
  303 : E7FA;
  304 : E7DA;
  305 : E7DA;
  306 : EFDB;
  307 : E7DA;
  308 : E7DA;
  309 : E7BB;
  30A : DFBA;
  30B : A71A;
  30C : 8699;
  30D : 6659;
  30E : 5639;
  30F : 5619;
  310 : 4E19;
  311 : 4DF9;
  312 : 4DF9;
  313 : 4E19;
  314 : 4E19;
  315 : 4E19;
  316 : 4E19;
  317 : 4E19;
  318 : 4E19;
  319 : 4E19;
  31A : 4E19;
  31B : 4E19;
  31C : 4E19;
  31D : 4E19;
  31E : 4E19;
  31F : 4E19;
  320 : 4E19;
  321 : 4E19;
  322 : 4E19;
  323 : 4E19;
  324 : 4E19;
  325 : 4E19;
  326 : 4E19;
  327 : 4E19;
  328 : 4E19;
  329 : 4E19;
  32A : 4E19;
  32B : 4E19;
  32C : 4E19;
  32D : 4E19;
  32E : 4DF9;
  32F : 4DF9;
  330 : 4E19;
  331 : 55F9;
  332 : 5E19;
  333 : 6618;
  334 : 8E57;
  335 : 9678;
  336 : D77A;
  337 : DFBA;
  338 : DFDB;
  339 : E7DA;
  33A : EFDA;
  33B : E7DB;
  33C : EFDB;
  33D : E7DB;
  33E : E7DB;
  33F : E7FB;
  340 : EFFB;
  341 : EFFB;
  342 : EFFB;
  343 : E7FB;
  344 : EFFB;
  345 : EFDB;
  346 : E7DB;
  347 : EFDB;
  348 : EFDA;
  349 : E7DB;
  34A : E7DB;
  34B : CF9B;
  34C : BF7B;
  34D : 7699;
  34E : 5E18;
  34F : 5619;
  350 : 4E19;
  351 : 4E19;
  352 : 4DF9;
  353 : 4E19;
  354 : 4E19;
  355 : 4E19;
  356 : 4E19;
  357 : 4E19;
  358 : 4E19;
  359 : 4E19;
  35A : 4E19;
  35B : 4E19;
  35C : 4E19;
  35D : 4E19;
  35E : 4E19;
  35F : 4E19;
  360 : 4E19;
  361 : 4E19;
  362 : 4E19;
  363 : 4E19;
  364 : 4E19;
  365 : 4E19;
  366 : 4E19;
  367 : 4E19;
  368 : 4E19;
  369 : 4E19;
  36A : 4E19;
  36B : 4E19;
  36C : 4E19;
  36D : 4E19;
  36E : 4DF9;
  36F : 4DF9;
  370 : 5619;
  371 : 55F9;
  372 : 65F8;
  373 : 6E18;
  374 : B719;
  375 : C759;
  376 : DFBB;
  377 : DFBA;
  378 : E7DB;
  379 : E7DB;
  37A : EFDB;
  37B : E7DB;
  37C : E7DA;
  37D : EFDB;
  37E : EFDB;
  37F : EFFB;
  380 : EFFB;
  381 : EFFB;
  382 : EFFB;
  383 : E7FB;
  384 : EFFB;
  385 : EFFB;
  386 : E7DB;
  387 : EFFB;
  388 : EFDA;
  389 : E7FB;
  38A : E7DB;
  38B : E7DB;
  38C : DFDC;
  38D : 96DA;
  38E : 6E59;
  38F : 5E39;
  390 : 5619;
  391 : 4E19;
  392 : 4DF9;
  393 : 4E19;
  394 : 4E19;
  395 : 4E19;
  396 : 4E19;
  397 : 4E19;
  398 : 4E19;
  399 : 4E19;
  39A : 4E19;
  39B : 4E19;
  39C : 4E19;
  39D : 4E19;
  39E : 4E19;
  39F : 4E19;
  3A0 : 4E19;
  3A1 : 4E19;
  3A2 : 4E19;
  3A3 : 4E19;
  3A4 : 4E19;
  3A5 : 4E19;
  3A6 : 4E19;
  3A7 : 4E19;
  3A8 : 4DF9;
  3A9 : 4E19;
  3AA : 4E19;
  3AB : 4E19;
  3AC : 4E19;
  3AD : 4E19;
  3AE : 4DF9;
  3AF : 4DF9;
  3B0 : 5619;
  3B1 : 5DF8;
  3B2 : 7638;
  3B3 : 8E38;
  3B4 : D79A;
  3B5 : E7DA;
  3B6 : DFDB;
  3B7 : E7BA;
  3B8 : E7DA;
  3B9 : E7DB;
  3BA : E7DB;
  3BB : E7FA;
  3BC : E7DB;
  3BD : EFDB;
  3BE : EFFB;
  3BF : EFFB;
  3C0 : EFFB;
  3C1 : EFFB;
  3C2 : EFFB;
  3C3 : EFFB;
  3C4 : EFFB;
  3C5 : E7DB;
  3C6 : E7DA;
  3C7 : EFDB;
  3C8 : EFDB;
  3C9 : E7FB;
  3CA : E7DB;
  3CB : E7BB;
  3CC : DFDB;
  3CD : B71A;
  3CE : 96FA;
  3CF : 665A;
  3D0 : 5619;
  3D1 : 5619;
  3D2 : 4E19;
  3D3 : 4DF9;
  3D4 : 4E19;
  3D5 : 4E19;
  3D6 : 4E19;
  3D7 : 4E19;
  3D8 : 4E19;
  3D9 : 4E19;
  3DA : 4E19;
  3DB : 4E19;
  3DC : 4E19;
  3DD : 4E19;
  3DE : 4E19;
  3DF : 4E19;
  3E0 : 4E19;
  3E1 : 4E19;
  3E2 : 4DF9;
  3E3 : 4DF9;
  3E4 : 4DF9;
  3E5 : 4E19;
  3E6 : 4DF9;
  3E7 : 4DF9;
  3E8 : 55F9;
  3E9 : 4E19;
  3EA : 4DF9;
  3EB : 4DF9;
  3EC : 4E19;
  3ED : 4DF9;
  3EE : 4DF9;
  3EF : 4DF9;
  3F0 : 5E19;
  3F1 : 6E18;
  3F2 : 9E98;
  3F3 : AED8;
  3F4 : D79A;
  3F5 : E7BA;
  3F6 : E7DB;
  3F7 : E7BA;
  3F8 : EFDA;
  3F9 : E7DB;
  3FA : E7DB;
  3FB : E7DA;
  3FC : E7DB;
  3FD : EFDB;
  3FE : E7FB;
  3FF : EFFB;
  400 : EFFB;
  401 : EFFB;
  402 : EFFB;
  403 : EFFB;
  404 : EFFB;
  405 : E7DB;
  406 : E7DB;
  407 : EFDB;
  408 : EFDB;
  409 : EFDB;
  40A : E7DB;
  40B : E7DB;
  40C : E7DB;
  40D : DF9B;
  40E : BFBB;
  40F : 6E9B;
  410 : 5E19;
  411 : 5619;
  412 : 4E19;
  413 : 4DF9;
  414 : 4DF9;
  415 : 4DF9;
  416 : 4E19;
  417 : 4DF9;
  418 : 4E19;
  419 : 4DF9;
  41A : 55F9;
  41B : 55F9;
  41C : 5619;
  41D : 4E19;
  41E : 4E19;
  41F : 4E19;
  420 : 4E19;
  421 : 4E19;
  422 : 4E19;
  423 : 4E19;
  424 : 4E19;
  425 : 4E19;
  426 : 4E19;
  427 : 4E19;
  428 : 4E19;
  429 : 4E19;
  42A : 4DF9;
  42B : 4DF9;
  42C : 4E19;
  42D : 4E19;
  42E : 55F9;
  42F : 5619;
  430 : 5E18;
  431 : 75F7;
  432 : BF3A;
  433 : DF9A;
  434 : E7DB;
  435 : E7DB;
  436 : E7DB;
  437 : E7DB;
  438 : EFFB;
  439 : EFFB;
  43A : EFFB;
  43B : EFFB;
  43C : EFFB;
  43D : EFFB;
  43E : EFFB;
  43F : EFFB;
  440 : EFFB;
  441 : EFFB;
  442 : EFFB;
  443 : EFFB;
  444 : EFFB;
  445 : E7DB;
  446 : E7DB;
  447 : EFDB;
  448 : EFDB;
  449 : EFFB;
  44A : EFFB;
  44B : E7DB;
  44C : E7DB;
  44D : E7DB;
  44E : CFBC;
  44F : 76BB;
  450 : 5E1A;
  451 : 5619;
  452 : 5619;
  453 : 55F9;
  454 : 5619;
  455 : 4E19;
  456 : 4E19;
  457 : 4DF9;
  458 : 4E19;
  459 : 4E19;
  45A : 5619;
  45B : 5619;
  45C : 4E19;
  45D : 4E19;
  45E : 4E19;
  45F : 4E19;
  460 : 4E19;
  461 : 4E19;
  462 : 4E19;
  463 : 4E19;
  464 : 4E19;
  465 : 4E19;
  466 : 4E19;
  467 : 4E19;
  468 : 4E19;
  469 : 4E19;
  46A : 4DF9;
  46B : 4DF9;
  46C : 4E19;
  46D : 4E19;
  46E : 4E19;
  46F : 5619;
  470 : 7658;
  471 : 9E98;
  472 : D77A;
  473 : E7DA;
  474 : E7DB;
  475 : E7DB;
  476 : E7DB;
  477 : E7DB;
  478 : E7FB;
  479 : E7DA;
  47A : EFFB;
  47B : EFFB;
  47C : EFFB;
  47D : EFFB;
  47E : EFFB;
  47F : EFFB;
  480 : EFFB;
  481 : EFFB;
  482 : EFFB;
  483 : EFFB;
  484 : EFFB;
  485 : E7DB;
  486 : E7DB;
  487 : EFDB;
  488 : EFDB;
  489 : EFFB;
  48A : EFFB;
  48B : E7DB;
  48C : E7DB;
  48D : DFDA;
  48E : CFBB;
  48F : 76BA;
  490 : 5E39;
  491 : 561A;
  492 : 5619;
  493 : 55F9;
  494 : 4E19;
  495 : 4E19;
  496 : 4E19;
  497 : 4DF9;
  498 : 4E19;
  499 : 4E19;
  49A : 5619;
  49B : 5619;
  49C : 5619;
  49D : 4DF9;
  49E : 4DF9;
  49F : 4DF9;
  4A0 : 4DF9;
  4A1 : 4DF9;
  4A2 : 4DF9;
  4A3 : 4E19;
  4A4 : 4DF9;
  4A5 : 4E19;
  4A6 : 4E19;
  4A7 : 4E19;
  4A8 : 4E19;
  4A9 : 4E19;
  4AA : 4DF9;
  4AB : 4DF9;
  4AC : 4E19;
  4AD : 5619;
  4AE : 5618;
  4AF : 5E18;
  4B0 : 9EB8;
  4B1 : CF59;
  4B2 : DF9A;
  4B3 : E7DB;
  4B4 : E7DB;
  4B5 : E7FB;
  4B6 : E7FB;
  4B7 : E7DA;
  4B8 : E7DA;
  4B9 : E7DA;
  4BA : EFFB;
  4BB : EFFB;
  4BC : EFFB;
  4BD : EFFB;
  4BE : EFFB;
  4BF : EFFB;
  4C0 : EFFB;
  4C1 : EFFB;
  4C2 : EFFB;
  4C3 : EFFB;
  4C4 : EFFB;
  4C5 : E7DB;
  4C6 : E7DB;
  4C7 : EFFB;
  4C8 : EFFB;
  4C9 : E7DA;
  4CA : EFFB;
  4CB : E7FB;
  4CC : E7DB;
  4CD : DFDA;
  4CE : D7BB;
  4CF : 8EB9;
  4D0 : 6E59;
  4D1 : 5E1A;
  4D2 : 5619;
  4D3 : 4E19;
  4D4 : 4E19;
  4D5 : 4E19;
  4D6 : 4E19;
  4D7 : 4E19;
  4D8 : 4E19;
  4D9 : 4E19;
  4DA : 5E18;
  4DB : 6E18;
  4DC : 6638;
  4DD : 5E18;
  4DE : 5E19;
  4DF : 5E19;
  4E0 : 5E19;
  4E1 : 5E19;
  4E2 : 5E19;
  4E3 : 5E19;
  4E4 : 5619;
  4E5 : 5619;
  4E6 : 4E19;
  4E7 : 4E19;
  4E8 : 4DF9;
  4E9 : 4DF9;
  4EA : 4DF9;
  4EB : 4E19;
  4EC : 5619;
  4ED : 5619;
  4EE : 6618;
  4EF : 7638;
  4F0 : BF18;
  4F1 : E7BA;
  4F2 : E7BB;
  4F3 : E7DB;
  4F4 : E7DA;
  4F5 : E7FA;
  4F6 : EFFB;
  4F7 : E7DA;
  4F8 : E7DA;
  4F9 : EFFB;
  4FA : EFFB;
  4FB : EFFB;
  4FC : EFFB;
  4FD : EFFB;
  4FE : EFFB;
  4FF : EFFB;
  500 : EFFB;
  501 : EFFB;
  502 : EFFB;
  503 : EFFB;
  504 : EFFB;
  505 : EFFB;
  506 : EFFB;
  507 : EFFB;
  508 : E7DB;
  509 : E7DA;
  50A : E7FA;
  50B : E7FB;
  50C : E7DB;
  50D : E7DA;
  50E : DFBB;
  50F : BF5B;
  510 : 9F1B;
  511 : 665A;
  512 : 5E19;
  513 : 4E19;
  514 : 4E19;
  515 : 4E19;
  516 : 4E19;
  517 : 4E19;
  518 : 4E19;
  519 : 5619;
  51A : 8679;
  51B : AEF9;
  51C : A719;
  51D : A6B9;
  51E : 96D9;
  51F : 9ED9;
  520 : 9ED9;
  521 : 9ED9;
  522 : 9ED9;
  523 : 9EDA;
  524 : 8EDA;
  525 : 6659;
  526 : 5619;
  527 : 4E19;
  528 : 4DF9;
  529 : 4DF9;
  52A : 4E19;
  52B : 5619;
  52C : 5E19;
  52D : 6618;
  52E : 8E58;
  52F : A6D9;
  530 : D77A;
  531 : E7BA;
  532 : E7BA;
  533 : E7DB;
  534 : E7DA;
  535 : E7DA;
  536 : EFFA;
  537 : E7DA;
  538 : E7DA;
  539 : E7DB;
  53A : EFFB;
  53B : EFFB;
  53C : EFFB;
  53D : EFFB;
  53E : EFFB;
  53F : EFFB;
  540 : EFFB;
  541 : EFFB;
  542 : EFFB;
  543 : EFFB;
  544 : EFFB;
  545 : EFFB;
  546 : EFFB;
  547 : EFFB;
  548 : E7FB;
  549 : E7DA;
  54A : E7DA;
  54B : E7DA;
  54C : E7DB;
  54D : E7DB;
  54E : E7DA;
  54F : DFBB;
  550 : B77B;
  551 : 665A;
  552 : 5619;
  553 : 4E19;
  554 : 4E19;
  555 : 4E19;
  556 : 4DF9;
  557 : 4DF9;
  558 : 5618;
  559 : 6618;
  55A : AEF9;
  55B : D79A;
  55C : CFBA;
  55D : D77A;
  55E : CF7A;
  55F : CF7A;
  560 : D79A;
  561 : D79A;
  562 : CF7A;
  563 : CF7A;
  564 : BF7B;
  565 : 7E99;
  566 : 5E18;
  567 : 55F9;
  568 : 4DF8;
  569 : 4DF9;
  56A : 5619;
  56B : 55F9;
  56C : 65F8;
  56D : 6E18;
  56E : B6F9;
  56F : D79A;
  570 : DFBA;
  571 : DFDB;
  572 : EFDA;
  573 : E7DB;
  574 : E7FB;
  575 : E7DA;
  576 : EFFB;
  577 : EFFB;
  578 : EFFB;
  579 : E7FB;
  57A : EFFB;
  57B : EFFB;
  57C : EFFB;
  57D : EFFB;
  57E : EFFB;
  57F : EFFB;
  580 : EFFB;
  581 : EFFB;
  582 : EFFB;
  583 : EFFB;
  584 : EFFB;
  585 : EFFB;
  586 : EFFB;
  587 : EFFB;
  588 : E7FB;
  589 : E7DA;
  58A : E7DA;
  58B : E7DB;
  58C : E7DB;
  58D : E7DB;
  58E : DFDA;
  58F : E7DB;
  590 : BF7B;
  591 : 667A;
  592 : 5619;
  593 : 4E19;
  594 : 4E19;
  595 : 4E19;
  596 : 5E19;
  597 : 6E59;
  598 : 7E79;
  599 : 9698;
  59A : CF5A;
  59B : E7DA;
  59C : DFDA;
  59D : E7BB;
  59E : E7DB;
  59F : E7DB;
  5A0 : E7DB;
  5A1 : E7DB;
  5A2 : E7DB;
  5A3 : E7BA;
  5A4 : DFBB;
  5A5 : AF19;
  5A6 : 8699;
  5A7 : 7E79;
  5A8 : 6E59;
  5A9 : 5619;
  5AA : 5619;
  5AB : 5DF8;
  5AC : 7E38;
  5AD : 8638;
  5AE : C759;
  5AF : E7DA;
  5B0 : E7DA;
  5B1 : DFDB;
  5B2 : EFDA;
  5B3 : E7DB;
  5B4 : E7FB;
  5B5 : E7DB;
  5B6 : EFFB;
  5B7 : EFFB;
  5B8 : EFFB;
  5B9 : E7FB;
  5BA : EFFB;
  5BB : EFFB;
  5BC : EFFB;
  5BD : EFFB;
  5BE : EFFB;
  5BF : EFFB;
  5C0 : EFFB;
  5C1 : EFFB;
  5C2 : EFFB;
  5C3 : EFFB;
  5C4 : EFFB;
  5C5 : EFFB;
  5C6 : EFFB;
  5C7 : EFFB;
  5C8 : EFFB;
  5C9 : E7FB;
  5CA : EFFB;
  5CB : EFFB;
  5CC : E7DB;
  5CD : E7DB;
  5CE : DFFA;
  5CF : E7DB;
  5D0 : BF7B;
  5D1 : 6E59;
  5D2 : 5619;
  5D3 : 5619;
  5D4 : 5619;
  5D5 : 5619;
  5D6 : 7659;
  5D7 : AEFA;
  5D8 : BF3A;
  5D9 : CF5A;
  5DA : DFBB;
  5DB : E7BB;
  5DC : E7BA;
  5DD : E7BB;
  5DE : E7DB;
  5DF : E7DB;
  5E0 : E7DB;
  5E1 : E7DB;
  5E2 : E7BB;
  5E3 : E7BA;
  5E4 : E7BB;
  5E5 : D79A;
  5E6 : C77A;
  5E7 : BF5A;
  5E8 : A71A;
  5E9 : 5E39;
  5EA : 6618;
  5EB : 6E18;
  5EC : 9698;
  5ED : A698;
  5EE : BF19;
  5EF : E7DA;
  5F0 : E7DA;
  5F1 : E7DB;
  5F2 : E7DA;
  5F3 : E7FB;
  5F4 : EFFB;
  5F5 : EFFB;
  5F6 : EFFB;
  5F7 : EFFB;
  5F8 : EFFB;
  5F9 : EFFB;
  5FA : EFFB;
  5FB : EFFB;
  5FC : EFFB;
  5FD : EFFB;
  5FE : EFFB;
  5FF : EFFB;
  600 : EFFB;
  601 : EFFB;
  602 : EFFB;
  603 : EFFB;
  604 : EFFB;
  605 : EFFB;
  606 : EFFB;
  607 : EFFB;
  608 : EFFB;
  609 : EFFB;
  60A : EFFB;
  60B : EFFB;
  60C : EFFB;
  60D : EFDA;
  60E : E7FA;
  60F : E7DB;
  610 : CF7B;
  611 : 8678;
  612 : 6639;
  613 : 5E19;
  614 : 6619;
  615 : 6E38;
  616 : AEB9;
  617 : D79B;
  618 : DFBA;
  619 : DFBB;
  61A : E7DB;
  61B : E7DB;
  61C : E7DA;
  61D : E7DA;
  61E : E7DB;
  61F : E7DB;
  620 : E7DB;
  621 : E7DB;
  622 : E7DA;
  623 : E7DA;
  624 : E7DA;
  625 : E7BA;
  626 : DFBB;
  627 : DFDB;
  628 : CF9B;
  629 : 7E78;
  62A : 7638;
  62B : 7E17;
  62C : AEF9;
  62D : AED8;
  62E : BF19;
  62F : E7DB;
  630 : E7DB;
  631 : EFDA;
  632 : EFDA;
  633 : E7FA;
  634 : EFFB;
  635 : EFFB;
  636 : EFFB;
  637 : EFFB;
  638 : EFFB;
  639 : EFFB;
  63A : EFFB;
  63B : EFFB;
  63C : EFFB;
  63D : EFFB;
  63E : EFFB;
  63F : EFFB;
  640 : EFFB;
  641 : EFFB;
  642 : EFFB;
  643 : EFFB;
  644 : EFFB;
  645 : EFFB;
  646 : EFFB;
  647 : EFFB;
  648 : EFFB;
  649 : EFFB;
  64A : EFFB;
  64B : E7DB;
  64C : EFDB;
  64D : E7FA;
  64E : E7FA;
  64F : EFDB;
  650 : DFBB;
  651 : BF3A;
  652 : AEFA;
  653 : A6F9;
  654 : AEF9;
  655 : AF19;
  656 : D75A;
  657 : E7BB;
  658 : E7DB;
  659 : E7DB;
  65A : E7DB;
  65B : E7DB;
  65C : E7DA;
  65D : E7FB;
  65E : E7DB;
  65F : E7DB;
  660 : E7DB;
  661 : E7DA;
  662 : E7DA;
  663 : E7DA;
  664 : E7DA;
  665 : E7DA;
  666 : E7DB;
  667 : E7DB;
  668 : DFBB;
  669 : BF39;
  66A : B719;
  66B : B6F9;
  66C : CF5A;
  66D : CF59;
  66E : D77A;
  66F : E7DB;
  670 : EFDB;
  671 : EFDA;
  672 : EFDA;
  673 : EFDA;
  674 : EFFB;
  675 : EFFB;
  676 : EFFB;
  677 : EFFB;
  678 : EFFB;
  679 : EFFB;
  67A : EFFB;
  67B : EFFB;
  67C : EFFB;
  67D : EFFB;
  67E : EFFB;
  67F : EFFB;
  680 : EFFB;
  681 : EFFB;
  682 : EFFB;
  683 : EFFB;
  684 : EFFB;
  685 : EFFB;
  686 : EFFB;
  687 : EFFB;
  688 : EFFB;
  689 : EFFB;
  68A : EFFB;
  68B : E7DB;
  68C : EFDB;
  68D : E7FA;
  68E : E7FA;
  68F : E7DB;
  690 : E7DB;
  691 : DFBB;
  692 : DF9A;
  693 : D79A;
  694 : DF9A;
  695 : DFBA;
  696 : E7BA;
  697 : E7BB;
  698 : E7DB;
  699 : E7DB;
  69A : E7DB;
  69B : E7DB;
  69C : E7FA;
  69D : EFFB;
  69E : E7DA;
  69F : E7DA;
  6A0 : E7DA;
  6A1 : E7DA;
  6A2 : E7DA;
  6A3 : E7DA;
  6A4 : E7DA;
  6A5 : E7DA;
  6A6 : E7DB;
  6A7 : E7DB;
  6A8 : E7BB;
  6A9 : E7BB;
  6AA : DFBB;
  6AB : DFBB;
  6AC : DFBA;
  6AD : E7BA;
  6AE : E7BA;
  6AF : E7DB;
  6B0 : EFDA;
  6B1 : EFDA;
  6B2 : EFDA;
  6B3 : EFDB;
  6B4 : EFFB;
  6B5 : EFFB;
  6B6 : EFFB;
  6B7 : EFFB;
  6B8 : EFFB;
  6B9 : EFFB;
  6BA : EFFB;
  6BB : EFFB;
  6BC : EFFB;
  6BD : EFFB;
  6BE : EFFB;
  6BF : EFFB;
  6C0 : EFFB;
  6C1 : EFFB;
  6C2 : EFFB;
  6C3 : EFFB;
  6C4 : EFFB;
  6C5 : EFFB;
  6C6 : EFFB;
  6C7 : EFFB;
  6C8 : EFFB;
  6C9 : EFFB;
  6CA : EFFB;
  6CB : E7DB;
  6CC : E7DB;
  6CD : EFDB;
  6CE : E7DA;
  6CF : E7DB;
  6D0 : E7DB;
  6D1 : E7DA;
  6D2 : E7DA;
  6D3 : E7DB;
  6D4 : E7DB;
  6D5 : E7DB;
  6D6 : E7DB;
  6D7 : E7BB;
  6D8 : E7DB;
  6D9 : E7DB;
  6DA : E7DB;
  6DB : E7DA;
  6DC : EFFA;
  6DD : EFFA;
  6DE : EFFA;
  6DF : EFFA;
  6E0 : EFFA;
  6E1 : E7DA;
  6E2 : E7DA;
  6E3 : E7FA;
  6E4 : E7DA;
  6E5 : E7DA;
  6E6 : EFDB;
  6E7 : E7DB;
  6E8 : EFDB;
  6E9 : EFDB;
  6EA : E7DB;
  6EB : E7DB;
  6EC : E7DB;
  6ED : E7DB;
  6EE : E7DB;
  6EF : E7DA;
  6F0 : E7DA;
  6F1 : E7DA;
  6F2 : EFDA;
  6F3 : EFDB;
  6F4 : EFFB;
  6F5 : EFFB;
  6F6 : EFFB;
  6F7 : EFFB;
  6F8 : EFFB;
  6F9 : EFFB;
  6FA : EFFB;
  6FB : EFFB;
  6FC : EFFB;
  6FD : EFFB;
  6FE : EFFB;
  6FF : EFFB;
  700 : EFFB;
  701 : EFFB;
  702 : EFFB;
  703 : EFFB;
  704 : EFFB;
  705 : EFFB;
  706 : EFFB;
  707 : EFFB;
  708 : EFFB;
  709 : EFFB;
  70A : EFFB;
  70B : E7DB;
  70C : E7DB;
  70D : EFDB;
  70E : EFDB;
  70F : E7FB;
  710 : E7FB;
  711 : E7FB;
  712 : E7DB;
  713 : E7DB;
  714 : E7DB;
  715 : E7FB;
  716 : E7DB;
  717 : EFDA;
  718 : E7FB;
  719 : E7FB;
  71A : EFFB;
  71B : EFFB;
  71C : EFFA;
  71D : E7DA;
  71E : EFDB;
  71F : EFDB;
  720 : E7FB;
  721 : EFFA;
  722 : EFFB;
  723 : E7FA;
  724 : E7FA;
  725 : E7FB;
  726 : EFFB;
  727 : EFDB;
  728 : EFDB;
  729 : E7FA;
  72A : E7FA;
  72B : E7DA;
  72C : E7DA;
  72D : E7DA;
  72E : EFDA;
  72F : E7DA;
  730 : E7DA;
  731 : E7FA;
  732 : E7FB;
  733 : EFFB;
  734 : EFFB;
  735 : EFFB;
  736 : EFFB;
  737 : EFFB;
  738 : EFFB;
  739 : EFFB;
  73A : EFFB;
  73B : EFFB;
  73C : EFFB;
  73D : EFFB;
  73E : EFFB;
  73F : EFFB;
  740 : EFFB;
  741 : EFFB;
  742 : EFFB;
  743 : EFFB;
  744 : EFFB;
  745 : EFFB;
  746 : EFFB;
  747 : EFFB;
  748 : EFFB;
  749 : EFFB;
  74A : EFFB;
  74B : E7DB;
  74C : E7DB;
  74D : EFFB;
  74E : EFDB;
  74F : E7DB;
  750 : E7DB;
  751 : EFDB;
  752 : EFDB;
  753 : EFDA;
  754 : E7DB;
  755 : E7DB;
  756 : E7DB;
  757 : E7DB;
  758 : E7FB;
  759 : E7FB;
  75A : EFFB;
  75B : EFFB;
  75C : E7DA;
  75D : EFDB;
  75E : EFFB;
  75F : E7FB;
  760 : EFDB;
  761 : E7DB;
  762 : E7FB;
  763 : E7DA;
  764 : E7FB;
  765 : EFFB;
  766 : E7FB;
  767 : E7DB;
  768 : E7DB;
  769 : E7FA;
  76A : E7FB;
  76B : E7DB;
  76C : E7DB;
  76D : EFDB;
  76E : EFDB;
  76F : E7DA;
  770 : E7FA;
  771 : E7FA;
  772 : E7FB;
  773 : EFFB;
  774 : EFFB;
  775 : EFFB;
  776 : EFFB;
  777 : EFFB;
  778 : EFFB;
  779 : EFFB;
  77A : EFFB;
  77B : EFFB;
  77C : EFFB;
  77D : EFFB;
  77E : EFFB;
  77F : EFFB;
  780 : EFFB;
  781 : EFFB;
  782 : EFFB;
  783 : EFFB;
  784 : EFFB;
  785 : EFFB;
  786 : EFFB;
  787 : EFFB;
  788 : EFFB;
  789 : EFFB;
  78A : EFFB;
  78B : E7DB;
  78C : E7DB;
  78D : E7FB;
  78E : EFDB;
  78F : EFDB;
  790 : EFDB;
  791 : EFDB;
  792 : EFDB;
  793 : EFDA;
  794 : EFDA;
  795 : EFDB;
  796 : E7DB;
  797 : E7DB;
  798 : E7FB;
  799 : E7FB;
  79A : EFFB;
  79B : EFFB;
  79C : E7DB;
  79D : EFDB;
  79E : EFFB;
  79F : E7FB;
  7A0 : EFDB;
  7A1 : E7DB;
  7A2 : E7FA;
  7A3 : E7DB;
  7A4 : E7FB;
  7A5 : EFFB;
  7A6 : E7DB;
  7A7 : E7DB;
  7A8 : E7DB;
  7A9 : E7FA;
  7AA : E7DB;
  7AB : E7DB;
  7AC : E7DB;
  7AD : EFDB;
  7AE : EFDB;
  7AF : E7DB;
  7B0 : E7FB;
  7B1 : E7FB;
  7B2 : E7FB;
  7B3 : EFFB;
  7B4 : EFFB;
  7B5 : EFFB;
  7B6 : EFFB;
  7B7 : EFFB;
  7B8 : EFFB;
  7B9 : EFFB;
  7BA : EFFB;
  7BB : EFFB;
  7BC : EFFB;
  7BD : EFFB;
  7BE : EFFB;
  7BF : EFFB;
  7C0 : EFFB;
  7C1 : EFFB;
  7C2 : EFFB;
  7C3 : EFFB;
  7C4 : EFFB;
  7C5 : EFFB;
  7C6 : EFFB;
  7C7 : EFFB;
  7C8 : EFFB;
  7C9 : EFFB;
  7CA : EFFB;
  7CB : EFFB;
  7CC : EFFB;
  7CD : EFFB;
  7CE : EFFB;
  7CF : EFFB;
  7D0 : EFFB;
  7D1 : EFFB;
  7D2 : EFFB;
  7D3 : EFFB;
  7D4 : EFFB;
  7D5 : EFFB;
  7D6 : EFFB;
  7D7 : EFFB;
  7D8 : E7FB;
  7D9 : E7DB;
  7DA : EFFB;
  7DB : EFFB;
  7DC : E7DB;
  7DD : EFFB;
  7DE : E7FA;
  7DF : E7DB;
  7E0 : EFDB;
  7E1 : E7DB;
  7E2 : E7DA;
  7E3 : EFDA;
  7E4 : EFDB;
  7E5 : EFDB;
  7E6 : EFDB;
  7E7 : EFDB;
  7E8 : EFDB;
  7E9 : E7FB;
  7EA : E7DB;
  7EB : E7DB;
  7EC : E7DB;
  7ED : EFFB;
  7EE : EFDB;
  7EF : EFFB;
  7F0 : EFFB;
  7F1 : EFFB;
  7F2 : EFFB;
  7F3 : EFFB;
  7F4 : EFFB;
  7F5 : EFFB;
  7F6 : EFFB;
  7F7 : EFFB;
  7F8 : EFFB;
  7F9 : EFFB;
  7FA : EFFB;
  7FB : EFFB;
  7FC : EFFB;
  7FD : EFFB;
  7FE : EFFB;
  7FF : EFFB;
  800 : EFFB;
  801 : EFFB;
  802 : EFFB;
  803 : EFFB;
  804 : EFFB;
  805 : EFFB;
  806 : EFFB;
  807 : EFFB;
  808 : EFFB;
  809 : EFFB;
  80A : EFFB;
  80B : EFFB;
  80C : EFFB;
  80D : EFFB;
  80E : EFFB;
  80F : EFFB;
  810 : EFFB;
  811 : EFFB;
  812 : EFFB;
  813 : EFFB;
  814 : EFFB;
  815 : EFFB;
  816 : EFFB;
  817 : EFFB;
  818 : E7DB;
  819 : E7DB;
  81A : EFFB;
  81B : EFFB;
  81C : EFDB;
  81D : E7DB;
  81E : E7DA;
  81F : E7DA;
  820 : EFDB;
  821 : E7DA;
  822 : E7DB;
  823 : E7DB;
  824 : E7DB;
  825 : E7DB;
  826 : E7DB;
  827 : E7DB;
  828 : E7DB;
  829 : E7DB;
  82A : E7DB;
  82B : EFDB;
  82C : EFDA;
  82D : EFDB;
  82E : EFDB;
  82F : EFFB;
  830 : EFFB;
  831 : EFFB;
  832 : EFFB;
  833 : EFFB;
  834 : EFFB;
  835 : EFFB;
  836 : EFFB;
  837 : EFFB;
  838 : EFFB;
  839 : EFFB;
  83A : EFFB;
  83B : EFFB;
  83C : EFFB;
  83D : EFFB;
  83E : EFFB;
  83F : EFFB;
  840 : EFFB;
  841 : EFFB;
  842 : EFFB;
  843 : EFFB;
  844 : EFFB;
  845 : EFFB;
  846 : EFFB;
  847 : EFFB;
  848 : E7DB;
  849 : E7DB;
  84A : EFFB;
  84B : EFFB;
  84C : EFFB;
  84D : EFFB;
  84E : EFFB;
  84F : EFFB;
  850 : EFFB;
  851 : EFFB;
  852 : EFFB;
  853 : EFFB;
  854 : EFFB;
  855 : EFFB;
  856 : E7DB;
  857 : E7DB;
  858 : E7DB;
  859 : E7DB;
  85A : EFFB;
  85B : EFFB;
  85C : E7DB;
  85D : E7DB;
  85E : E7FB;
  85F : E7FB;
  860 : E7FB;
  861 : E7FB;
  862 : E7FB;
  863 : E7FB;
  864 : E7FB;
  865 : E7DB;
  866 : E7FC;
  867 : E7FC;
  868 : E7FC;
  869 : E7DC;
  86A : E7FC;
  86B : EFFB;
  86C : EFDB;
  86D : EFDA;
  86E : EFDA;
  86F : E7DB;
  870 : E7DB;
  871 : EFFB;
  872 : EFFB;
  873 : EFFB;
  874 : EFFB;
  875 : EFFB;
  876 : EFFB;
  877 : EFFB;
  878 : EFFB;
  879 : EFFB;
  87A : EFFB;
  87B : EFFB;
  87C : EFFB;
  87D : EFFB;
  87E : EFFB;
  87F : EFFB;
  880 : EFFB;
  881 : EFFB;
  882 : EFFB;
  883 : EFFB;
  884 : EFFB;
  885 : EFFB;
  886 : EFFB;
  887 : EFFB;
  888 : E7DB;
  889 : E7DB;
  88A : EFFB;
  88B : EFFB;
  88C : EFFB;
  88D : EFFB;
  88E : EFFB;
  88F : EFFB;
  890 : EFFB;
  891 : EFFB;
  892 : EFFB;
  893 : EFFB;
  894 : EFFB;
  895 : EFFB;
  896 : E7DB;
  897 : E7DB;
  898 : E7DB;
  899 : E7DB;
  89A : EFFB;
  89B : E7FB;
  89C : E7DB;
  89D : E7DB;
  89E : DFDA;
  89F : DFDA;
  8A0 : DFDA;
  8A1 : DFDA;
  8A2 : D7DB;
  8A3 : D7BB;
  8A4 : CFBB;
  8A5 : CFBB;
  8A6 : CFBC;
  8A7 : CFBC;
  8A8 : CFBC;
  8A9 : CFBC;
  8AA : D7BC;
  8AB : D7BB;
  8AC : DFBB;
  8AD : E7DB;
  8AE : EFDB;
  8AF : E7DB;
  8B0 : E7DB;
  8B1 : EFFB;
  8B2 : EFFB;
  8B3 : EFFB;
  8B4 : EFFB;
  8B5 : EFFB;
  8B6 : EFFB;
  8B7 : EFFB;
  8B8 : EFFB;
  8B9 : EFFB;
  8BA : EFFB;
  8BB : EFFB;
  8BC : EFFB;
  8BD : EFFB;
  8BE : EFFB;
  8BF : EFFB;
  8C0 : EFFB;
  8C1 : EFFB;
  8C2 : EFFB;
  8C3 : EFFB;
  8C4 : EFFB;
  8C5 : EFFB;
  8C6 : EFFB;
  8C7 : EFFB;
  8C8 : E7DB;
  8C9 : E7DB;
  8CA : EFFB;
  8CB : EFFB;
  8CC : EFFB;
  8CD : EFFB;
  8CE : EFFB;
  8CF : EFFB;
  8D0 : EFFB;
  8D1 : EFFB;
  8D2 : EFFB;
  8D3 : EFFB;
  8D4 : EFFB;
  8D5 : EFFB;
  8D6 : E7DB;
  8D7 : E7DB;
  8D8 : E7DB;
  8D9 : EFDB;
  8DA : EFFB;
  8DB : E7FB;
  8DC : E7DB;
  8DD : E7DB;
  8DE : CF99;
  8DF : CF79;
  8E0 : C779;
  8E1 : C779;
  8E2 : C779;
  8E3 : B75B;
  8E4 : AF3B;
  8E5 : AF3B;
  8E6 : AF3B;
  8E7 : B73B;
  8E8 : B73B;
  8E9 : B73B;
  8EA : B73B;
  8EB : B73B;
  8EC : CF7B;
  8ED : E7DB;
  8EE : E7DB;
  8EF : E7DA;
  8F0 : E7DB;
  8F1 : EFFB;
  8F2 : EFFB;
  8F3 : EFFB;
  8F4 : EFFB;
  8F5 : EFFB;
  8F6 : EFFB;
  8F7 : EFFB;
  8F8 : EFFB;
  8F9 : EFFB;
  8FA : EFFB;
  8FB : EFFB;
  8FC : EFFB;
  8FD : EFFB;
  8FE : EFFB;
  8FF : EFFB;
  900 : EFFB;
  901 : EFFB;
  902 : EFFB;
  903 : EFFB;
  904 : EFFB;
  905 : EFFB;
  906 : EFFB;
  907 : EFFB;
  908 : EFFB;
  909 : EFFB;
  90A : EFFB;
  90B : EFFB;
  90C : EFFB;
  90D : E7DB;
  90E : E7DB;
  90F : EFFB;
  910 : EFFB;
  911 : EFFB;
  912 : EFFB;
  913 : EFFB;
  914 : EFFB;
  915 : EFFB;
  916 : E7DB;
  917 : E7DB;
  918 : EFFB;
  919 : EFDB;
  91A : E7DA;
  91B : E7FB;
  91C : E7DB;
  91D : DFBA;
  91E : BF59;
  91F : BF58;
  920 : BF38;
  921 : BF38;
  922 : BF39;
  923 : AF1A;
  924 : 9EDB;
  925 : A6DA;
  926 : A6DA;
  927 : A6D9;
  928 : A6D9;
  929 : A6D9;
  92A : A6DA;
  92B : A6DA;
  92C : C73A;
  92D : E7DB;
  92E : EFDA;
  92F : E7DA;
  930 : E7DB;
  931 : EFFB;
  932 : EFFB;
  933 : EFFB;
  934 : EFFB;
  935 : EFFB;
  936 : EFFB;
  937 : EFFB;
  938 : EFFB;
  939 : EFFB;
  93A : EFFB;
  93B : EFFB;
  93C : EFFB;
  93D : EFFB;
  93E : EFFB;
  93F : EFFB;
  940 : E7FB;
  941 : E7FB;
  942 : EFFB;
  943 : EFFB;
  944 : E7DB;
  945 : EFFB;
  946 : E7DB;
  947 : EFDB;
  948 : EFFB;
  949 : EFFB;
  94A : EFFB;
  94B : EFFB;
  94C : EFFB;
  94D : EFFB;
  94E : EFFB;
  94F : EFFB;
  950 : EFFB;
  951 : E7DB;
  952 : E7DB;
  953 : EFFB;
  954 : E7DB;
  955 : E7DB;
  956 : EFFB;
  957 : EFFB;
  958 : E7DB;
  959 : E7FB;
  95A : EFDA;
  95B : E7DB;
  95C : E7FB;
  95D : DFBA;
  95E : BF39;
  95F : C738;
  960 : C758;
  961 : C758;
  962 : C759;
  963 : AF1A;
  964 : A6DA;
  965 : B6F9;
  966 : BF19;
  967 : BF19;
  968 : BF18;
  969 : BF19;
  96A : B71A;
  96B : A6DA;
  96C : C73A;
  96D : E7DA;
  96E : E7DA;
  96F : E7DB;
  970 : EFDB;
  971 : E7FB;
  972 : E7FA;
  973 : E7FA;
  974 : EFFB;
  975 : EFFB;
  976 : EFFB;
  977 : EFFB;
  978 : EFFB;
  979 : EFFB;
  97A : EFFB;
  97B : EFFB;
  97C : EFFB;
  97D : E7DB;
  97E : EFFB;
  97F : EFFB;
  980 : E7FB;
  981 : E7FB;
  982 : EFFB;
  983 : EFFB;
  984 : E7DB;
  985 : EFFB;
  986 : E7DA;
  987 : EFDB;
  988 : EFFB;
  989 : EFFB;
  98A : EFFB;
  98B : EFFB;
  98C : EFFB;
  98D : EFFB;
  98E : EFFB;
  98F : EFFB;
  990 : EFFB;
  991 : E7DB;
  992 : E7DB;
  993 : EFFB;
  994 : E7FB;
  995 : E7FB;
  996 : EFFB;
  997 : EFFB;
  998 : E7DB;
  999 : E7FB;
  99A : EFDA;
  99B : E7DB;
  99C : DFFC;
  99D : DFBB;
  99E : BF39;
  99F : C758;
  9A0 : CF79;
  9A1 : CF79;
  9A2 : C77A;
  9A3 : AF1A;
  9A4 : A6D9;
  9A5 : C738;
  9A6 : D778;
  9A7 : CF59;
  9A8 : CF58;
  9A9 : CF79;
  9AA : BF5B;
  9AB : A6FA;
  9AC : C73A;
  9AD : E7BA;
  9AE : E7DB;
  9AF : E7DB;
  9B0 : EFDB;
  9B1 : E7FB;
  9B2 : E7FB;
  9B3 : E7FB;
  9B4 : EFFB;
  9B5 : EFFB;
  9B6 : EFFB;
  9B7 : EFFB;
  9B8 : EFFB;
  9B9 : EFFB;
  9BA : EFFB;
  9BB : EFFB;
  9BC : EFFB;
  9BD : E7DB;
  9BE : EFFB;
  9BF : EFFB;
  9C0 : E7FB;
  9C1 : E7FB;
  9C2 : EFFB;
  9C3 : EFFB;
  9C4 : E7DB;
  9C5 : EFDB;
  9C6 : EFDB;
  9C7 : EFDB;
  9C8 : E7DB;
  9C9 : EFFB;
  9CA : E7DB;
  9CB : EFFB;
  9CC : EFFB;
  9CD : EFFB;
  9CE : EFFB;
  9CF : EFFB;
  9D0 : EFFB;
  9D1 : EFFB;
  9D2 : E7DB;
  9D3 : E7FB;
  9D4 : E7FB;
  9D5 : E7FB;
  9D6 : E7FB;
  9D7 : E7FB;
  9D8 : E7FB;
  9D9 : E7FB;
  9DA : EFDA;
  9DB : DFDB;
  9DC : D7DC;
  9DD : CF9B;
  9DE : B739;
  9DF : BF59;
  9E0 : C77A;
  9E1 : C77A;
  9E2 : BF7B;
  9E3 : AF1B;
  9E4 : A6D9;
  9E5 : C738;
  9E6 : D778;
  9E7 : CF79;
  9E8 : CF79;
  9E9 : D799;
  9EA : C77B;
  9EB : 9EFA;
  9EC : C73A;
  9ED : E7BA;
  9EE : E7DB;
  9EF : E7DB;
  9F0 : EFFB;
  9F1 : E7FB;
  9F2 : E7FB;
  9F3 : E7FB;
  9F4 : EFFB;
  9F5 : EFFB;
  9F6 : EFFB;
  9F7 : EFFB;
  9F8 : EFFB;
  9F9 : EFFB;
  9FA : EFFB;
  9FB : EFFB;
  9FC : EFFB;
  9FD : E7DB;
  9FE : EFFB;
  9FF : EFFB;
  A00 : E7FB;
  A01 : E7FB;
  A02 : EFFB;
  A03 : EFFB;
  A04 : EFFB;
  A05 : EFDB;
  A06 : EFDB;
  A07 : EFFB;
  A08 : E7DB;
  A09 : EFDB;
  A0A : EFFB;
  A0B : EFFB;
  A0C : EFFB;
  A0D : EFFB;
  A0E : EFFB;
  A0F : EFFB;
  A10 : EFFB;
  A11 : EFFB;
  A12 : EFFB;
  A13 : EFFB;
  A14 : EFFB;
  A15 : EFFB;
  A16 : EFFB;
  A17 : EFFB;
  A18 : E7FB;
  A19 : E7FB;
  A1A : EFDA;
  A1B : DFBB;
  A1C : B73B;
  A1D : AF3B;
  A1E : A71A;
  A1F : A6FA;
  A20 : A6FA;
  A21 : A6FA;
  A22 : A6FB;
  A23 : 9EFB;
  A24 : 9ED9;
  A25 : C738;
  A26 : D779;
  A27 : BF59;
  A28 : BF58;
  A29 : CF78;
  A2A : BF5A;
  A2B : 9EFA;
  A2C : C739;
  A2D : E7BA;
  A2E : E7DB;
  A2F : E7DB;
  A30 : E7DB;
  A31 : E7DB;
  A32 : E7DB;
  A33 : EFFB;
  A34 : EFFB;
  A35 : EFFB;
  A36 : EFFB;
  A37 : EFFB;
  A38 : EFFB;
  A39 : EFFB;
  A3A : EFFB;
  A3B : EFFB;
  A3C : EFFB;
  A3D : E7DB;
  A3E : EFFB;
  A3F : EFFB;
  A40 : E7FB;
  A41 : E7FB;
  A42 : EFFB;
  A43 : EFFB;
  A44 : EFFB;
  A45 : E7FB;
  A46 : EFFB;
  A47 : EFFB;
  A48 : EFFB;
  A49 : EFFB;
  A4A : EFFB;
  A4B : EFFB;
  A4C : EFFB;
  A4D : E7DB;
  A4E : E7DB;
  A4F : EFFB;
  A50 : EFFB;
  A51 : EFFB;
  A52 : EFFB;
  A53 : EFDB;
  A54 : EFDB;
  A55 : EFDB;
  A56 : EFDB;
  A57 : EFDB;
  A58 : E7DB;
  A59 : E7DB;
  A5A : EFDA;
  A5B : DFBC;
  A5C : AF1B;
  A5D : A6FA;
  A5E : A6F9;
  A5F : A6D9;
  A60 : A6D9;
  A61 : A6D9;
  A62 : A6DA;
  A63 : A6D9;
  A64 : A6D9;
  A65 : C738;
  A66 : D778;
  A67 : BF38;
  A68 : BF38;
  A69 : CF78;
  A6A : BF5A;
  A6B : 9EFA;
  A6C : C71A;
  A6D : E7BB;
  A6E : E7DB;
  A6F : E7DB;
  A70 : E7DB;
  A71 : E7DB;
  A72 : EFDB;
  A73 : EFFB;
  A74 : E7DB;
  A75 : E7DB;
  A76 : E7DB;
  A77 : E7DB;
  A78 : E7DB;
  A79 : E7DB;
  A7A : EFFB;
  A7B : EFFB;
  A7C : EFFB;
  A7D : EFFB;
  A7E : EFFB;
  A7F : E7FB;
  A80 : E7DB;
  A81 : E7DB;
  A82 : EFFB;
  A83 : EFFB;
  A84 : EFFB;
  A85 : E7FB;
  A86 : EFFB;
  A87 : EFFB;
  A88 : EFFB;
  A89 : EFFB;
  A8A : EFFB;
  A8B : EFFB;
  A8C : EFFB;
  A8D : EFFB;
  A8E : EFDB;
  A8F : EFFB;
  A90 : EFFB;
  A91 : EFFB;
  A92 : EFFB;
  A93 : E7DB;
  A94 : E7DB;
  A95 : E7DB;
  A96 : E7DB;
  A97 : E7DB;
  A98 : E7DB;
  A99 : E7DB;
  A9A : E7DB;
  A9B : D7BC;
  A9C : AEFB;
  A9D : A6FA;
  A9E : BF18;
  A9F : BF19;
  AA0 : BF19;
  AA1 : BF19;
  AA2 : BF18;
  AA3 : B719;
  AA4 : BF18;
  AA5 : D757;
  AA6 : D778;
  AA7 : C758;
  AA8 : CF58;
  AA9 : D778;
  AAA : BF5B;
  AAB : 9EFA;
  AAC : BF1A;
  AAD : E7BB;
  AAE : DFDB;
  AAF : E7DB;
  AB0 : E7DB;
  AB1 : EFDB;
  AB2 : EFDB;
  AB3 : EFDB;
  AB4 : E7DB;
  AB5 : E7DB;
  AB6 : E7DB;
  AB7 : E7DB;
  AB8 : E7DB;
  AB9 : E7DB;
  ABA : EFFB;
  ABB : EFFB;
  ABC : EFFB;
  ABD : EFFB;
  ABE : EFFB;
  ABF : E7FB;
  AC0 : E7DB;
  AC1 : E7FB;
  AC2 : EFFB;
  AC3 : EFFB;
  AC4 : E7DB;
  AC5 : EFFB;
  AC6 : E7DB;
  AC7 : E7DB;
  AC8 : EFFB;
  AC9 : E7DB;
  ACA : EFFB;
  ACB : EFFB;
  ACC : EFFB;
  ACD : E7FB;
  ACE : E7DB;
  ACF : E7DB;
  AD0 : E7DB;
  AD1 : E7DB;
  AD2 : E7DB;
  AD3 : E7DB;
  AD4 : DFDB;
  AD5 : DFDB;
  AD6 : DFDB;
  AD7 : DFDB;
  AD8 : DFDB;
  AD9 : DFDB;
  ADA : E7DB;
  ADB : D7BC;
  ADC : AEFB;
  ADD : AEF9;
  ADE : D778;
  ADF : CF79;
  AE0 : CF79;
  AE1 : CF78;
  AE2 : D778;
  AE3 : CF78;
  AE4 : CF79;
  AE5 : D777;
  AE6 : DF78;
  AE7 : CF79;
  AE8 : D778;
  AE9 : D778;
  AEA : C77B;
  AEB : 9EFB;
  AEC : BF3A;
  AED : DFDB;
  AEE : DFDC;
  AEF : DFDB;
  AF0 : E7DB;
  AF1 : E7DB;
  AF2 : E7DB;
  AF3 : EFDB;
  AF4 : E7DB;
  AF5 : E7DB;
  AF6 : E7DB;
  AF7 : E7DB;
  AF8 : E7DB;
  AF9 : E7DB;
  AFA : EFFB;
  AFB : EFFB;
  AFC : EFFB;
  AFD : EFFB;
  AFE : EFFB;
  AFF : E7DA;
  B00 : E7DB;
  B01 : E7FB;
  B02 : EFFB;
  B03 : EFFB;
  B04 : E7DB;
  B05 : EFDB;
  B06 : EFDB;
  B07 : E7DB;
  B08 : EFDB;
  B09 : EFDB;
  B0A : E7DB;
  B0B : EFDB;
  B0C : E7DB;
  B0D : E7BB;
  B0E : D79B;
  B0F : D79B;
  B10 : D79B;
  B11 : D7BC;
  B12 : D7BC;
  B13 : D7BC;
  B14 : CFBC;
  B15 : D7BC;
  B16 : CFBC;
  B17 : CFBC;
  B18 : CFBC;
  B19 : CFBC;
  B1A : DFBB;
  B1B : D7BC;
  B1C : AF1A;
  B1D : AEF9;
  B1E : D778;
  B1F : CF79;
  B20 : C779;
  B21 : CF79;
  B22 : D798;
  B23 : CF78;
  B24 : CF79;
  B25 : D798;
  B26 : D798;
  B27 : CF79;
  B28 : CF79;
  B29 : D778;
  B2A : C75B;
  B2B : 9EFB;
  B2C : B71A;
  B2D : CF9B;
  B2E : CFBC;
  B2F : CFBC;
  B30 : CFBC;
  B31 : D7BB;
  B32 : E7DB;
  B33 : E7DB;
  B34 : EFDB;
  B35 : EFDB;
  B36 : E7FB;
  B37 : E7FB;
  B38 : E7DB;
  B39 : EFFB;
  B3A : EFFB;
  B3B : EFFB;
  B3C : EFFB;
  B3D : EFDB;
  B3E : EFDB;
  B3F : E7DB;
  B40 : EFDB;
  B41 : E7FB;
  B42 : EFFB;
  B43 : EFFB;
  B44 : EFFB;
  B45 : EFDB;
  B46 : EFDB;
  B47 : EFFB;
  B48 : EFDB;
  B49 : EFDB;
  B4A : EFFB;
  B4B : EFDB;
  B4C : E7DB;
  B4D : C77B;
  B4E : B71B;
  B4F : B71A;
  B50 : B71A;
  B51 : B71B;
  B52 : B73B;
  B53 : B71B;
  B54 : B71B;
  B55 : B71B;
  B56 : AF3B;
  B57 : AF3B;
  B58 : AF3B;
  B59 : B73A;
  B5A : D79A;
  B5B : D7BC;
  B5C : A71B;
  B5D : AEF8;
  B5E : D798;
  B5F : CF79;
  B60 : BF39;
  B61 : CF58;
  B62 : D778;
  B63 : C758;
  B64 : BF58;
  B65 : CF78;
  B66 : D798;
  B67 : BF58;
  B68 : C738;
  B69 : D778;
  B6A : C75B;
  B6B : 9EFB;
  B6C : A6FA;
  B6D : AF1B;
  B6E : AF1B;
  B6F : AF1B;
  B70 : AF1B;
  B71 : BF1A;
  B72 : DF9B;
  B73 : E7DB;
  B74 : EFDA;
  B75 : EFDB;
  B76 : E7DB;
  B77 : E7DB;
  B78 : EFDB;
  B79 : EFFB;
  B7A : E7FA;
  B7B : E7DA;
  B7C : EFFB;
  B7D : EFDB;
  B7E : EFDB;
  B7F : EFDB;
  B80 : EFDB;
  B81 : E7FB;
  B82 : EFFB;
  B83 : EFFB;
  B84 : EFFB;
  B85 : EFFB;
  B86 : EFDB;
  B87 : EFFB;
  B88 : EFFB;
  B89 : EFFB;
  B8A : EFFB;
  B8B : EFFB;
  B8C : E7BB;
  B8D : B73B;
  B8E : A6DA;
  B8F : AEF9;
  B90 : AEDA;
  B91 : AEDB;
  B92 : A6F9;
  B93 : AEDA;
  B94 : AEDA;
  B95 : A6D9;
  B96 : A6DA;
  B97 : A6FA;
  B98 : 9EDB;
  B99 : A6DA;
  B9A : D779;
  B9B : D7BB;
  B9C : A71B;
  B9D : AEF9;
  B9E : D798;
  B9F : C779;
  BA0 : B738;
  BA1 : C758;
  BA2 : D779;
  BA3 : C758;
  BA4 : BF37;
  BA5 : CF78;
  BA6 : D798;
  BA7 : BF58;
  BA8 : BF38;
  BA9 : D778;
  BAA : C75A;
  BAB : 9EFA;
  BAC : 9EDA;
  BAD : A6DA;
  BAE : A6D9;
  BAF : A6FA;
  BB0 : 9EDA;
  BB1 : AEDA;
  BB2 : D79A;
  BB3 : E7DB;
  BB4 : E7DB;
  BB5 : E7DB;
  BB6 : E7DB;
  BB7 : E7DB;
  BB8 : EFDB;
  BB9 : EFFB;
  BBA : E7FA;
  BBB : E7DA;
  BBC : EFFB;
  BBD : EFDB;
  BBE : EFDB;
  BBF : EFDB;
  BC0 : E7DA;
  BC1 : E7DB;
  BC2 : EFFB;
  BC3 : EFFB;
  BC4 : EFFB;
  BC5 : E7FB;
  BC6 : EFFB;
  BC7 : EFFB;
  BC8 : E7FB;
  BC9 : EFFB;
  BCA : EFFB;
  BCB : E7FB;
  BCC : E7BB;
  BCD : B73A;
  BCE : A6DA;
  BCF : B719;
  BD0 : BF19;
  BD1 : BF1A;
  BD2 : BF18;
  BD3 : BF19;
  BD4 : BF19;
  BD5 : BF19;
  BD6 : B719;
  BD7 : AF1A;
  BD8 : A6FA;
  BD9 : A6DA;
  BDA : D779;
  BDB : D7BB;
  BDC : A71B;
  BDD : AEF9;
  BDE : D778;
  BDF : CF79;
  BE0 : BF38;
  BE1 : CF58;
  BE2 : D799;
  BE3 : C758;
  BE4 : BF37;
  BE5 : D778;
  BE6 : D798;
  BE7 : BF58;
  BE8 : BF38;
  BE9 : D778;
  BEA : BF5A;
  BEB : 9EFA;
  BEC : A6F9;
  BED : AEF9;
  BEE : B719;
  BEF : BF19;
  BF0 : A6FA;
  BF1 : A6DA;
  BF2 : DF9A;
  BF3 : E7DB;
  BF4 : E7DB;
  BF5 : E7DB;
  BF6 : E7DB;
  BF7 : E7FB;
  BF8 : EFDB;
  BF9 : E7DB;
  BFA : E7DA;
  BFB : E7DA;
  BFC : EFFB;
  BFD : EFFB;
  BFE : EFFB;
  BFF : E7DA;
  C00 : E7DA;
  C01 : E7FB;
  C02 : EFFB;
  C03 : EFFB;
  C04 : E7DB;
  C05 : EFFB;
  C06 : EFFB;
  C07 : E7DB;
  C08 : EFDB;
  C09 : E7DA;
  C0A : EFDB;
  C0B : E7DB;
  C0C : DFBA;
  C0D : B71A;
  C0E : AED9;
  C0F : CF39;
  C10 : D779;
  C11 : CF79;
  C12 : D778;
  C13 : CF78;
  C14 : CF78;
  C15 : CF79;
  C16 : BF59;
  C17 : B739;
  C18 : A6FA;
  C19 : A6DA;
  C1A : D779;
  C1B : D7BC;
  C1C : A71C;
  C1D : AEF9;
  C1E : D778;
  C1F : CF78;
  C20 : BF38;
  C21 : CF58;
  C22 : D799;
  C23 : C758;
  C24 : BF37;
  C25 : D778;
  C26 : D799;
  C27 : BF58;
  C28 : BF38;
  C29 : D778;
  C2A : BF5A;
  C2B : 9EFA;
  C2C : A6F9;
  C2D : AF39;
  C2E : BF59;
  C2F : CF7A;
  C30 : AF3B;
  C31 : A6FA;
  C32 : D79A;
  C33 : DFDC;
  C34 : DFFC;
  C35 : DFFC;
  C36 : DFFC;
  C37 : E7DB;
  C38 : E7FC;
  C39 : E7FB;
  C3A : E7DB;
  C3B : E7DB;
  C3C : EFFB;
  C3D : EFFB;
  C3E : EFFB;
  C3F : E7DA;
  C40 : E7DB;
  C41 : E7FB;
  C42 : EFFB;
  C43 : EFDB;
  C44 : E7FB;
  C45 : EFFB;
  C46 : EFFB;
  C47 : E7DB;
  C48 : EFDA;
  C49 : E7DA;
  C4A : E7DA;
  C4B : E7BA;
  C4C : DF9A;
  C4D : AF1B;
  C4E : A6D9;
  C4F : CF39;
  C50 : D779;
  C51 : C779;
  C52 : D758;
  C53 : D778;
  C54 : D778;
  C55 : CF79;
  C56 : C759;
  C57 : B739;
  C58 : A6FA;
  C59 : A6DA;
  C5A : D77A;
  C5B : D7BC;
  C5C : A71C;
  C5D : AED9;
  C5E : D778;
  C5F : CF78;
  C60 : C758;
  C61 : D758;
  C62 : D799;
  C63 : CF78;
  C64 : C757;
  C65 : D778;
  C66 : D779;
  C67 : C778;
  C68 : C758;
  C69 : D778;
  C6A : BF5B;
  C6B : 9EFB;
  C6C : A6DA;
  C6D : AEFA;
  C6E : B71A;
  C6F : BF3A;
  C70 : A73B;
  C71 : 9EFB;
  C72 : C75A;
  C73 : C77C;
  C74 : C79C;
  C75 : C79B;
  C76 : C79B;
  C77 : CF9B;
  C78 : CF9C;
  C79 : DFBB;
  C7A : E7DA;
  C7B : E7DA;
  C7C : EFFB;
  C7D : EFDB;
  C7E : EFDB;
  C7F : E7DB;
  C80 : EFDB;
  C81 : E7FB;
  C82 : EFFB;
  C83 : EFDB;
  C84 : E7FB;
  C85 : EFFB;
  C86 : EFFB;
  C87 : E7DA;
  C88 : E7BA;
  C89 : E7BA;
  C8A : E7BA;
  C8B : DF9A;
  C8C : D79B;
  C8D : AF1B;
  C8E : A6FA;
  C8F : CF39;
  C90 : CF79;
  C91 : B759;
  C92 : C739;
  C93 : CF79;
  C94 : CF79;
  C95 : CF79;
  C96 : BF59;
  C97 : B739;
  C98 : 9EFA;
  C99 : A6DA;
  C9A : CF7A;
  C9B : D7BC;
  C9C : A71C;
  C9D : AED9;
  C9E : D778;
  C9F : D778;
  CA0 : CF79;
  CA1 : D778;
  CA2 : D779;
  CA3 : CF79;
  CA4 : CF78;
  CA5 : D778;
  CA6 : D799;
  CA7 : CF99;
  CA8 : CF79;
  CA9 : D778;
  CAA : BF5A;
  CAB : 96FB;
  CAC : 9EDA;
  CAD : 9EBB;
  CAE : A6DA;
  CAF : A6FA;
  CB0 : 9EFB;
  CB1 : 9EDA;
  CB2 : AEFA;
  CB3 : AF1B;
  CB4 : AF1B;
  CB5 : AF1B;
  CB6 : AF1B;
  CB7 : B71B;
  CB8 : B71B;
  CB9 : CF7B;
  CBA : E7DA;
  CBB : E7DA;
  CBC : EFFB;
  CBD : EFDB;
  CBE : EFDB;
  CBF : EFDB;
  CC0 : EFDB;
  CC1 : E7FB;
  CC2 : EFFB;
  CC3 : EFDB;
  CC4 : EFFB;
  CC5 : EFFB;
  CC6 : E7DB;
  CC7 : E7BA;
  CC8 : D79A;
  CC9 : D77A;
  CCA : D77A;
  CCB : CF7B;
  CCC : CF7C;
  CCD : AF1B;
  CCE : A6F9;
  CCF : C739;
  CD0 : C75A;
  CD1 : AF39;
  CD2 : BF39;
  CD3 : C77A;
  CD4 : C77A;
  CD5 : C77A;
  CD6 : B73A;
  CD7 : AF3A;
  CD8 : 9EFA;
  CD9 : A6DA;
  CDA : CF79;
  CDB : D7BC;
  CDC : A71C;
  CDD : AED9;
  CDE : D778;
  CDF : D798;
  CE0 : CF99;
  CE1 : D778;
  CE2 : D779;
  CE3 : D799;
  CE4 : D798;
  CE5 : D799;
  CE6 : D799;
  CE7 : CF99;
  CE8 : D779;
  CE9 : D778;
  CEA : BF5A;
  CEB : 96FA;
  CEC : 9EDA;
  CED : 9EDA;
  CEE : A6B9;
  CEF : A6B9;
  CF0 : A6D9;
  CF1 : A6D9;
  CF2 : AEB9;
  CF3 : AEDA;
  CF4 : A6DA;
  CF5 : A6D9;
  CF6 : A6DA;
  CF7 : A6DA;
  CF8 : A6DA;
  CF9 : CF7A;
  CFA : E7DA;
  CFB : E7DA;
  CFC : EFFB;
  CFD : EFDB;
  CFE : EFDB;
  CFF : EFDB;
  D00 : E7DA;
  D01 : E7DB;
  D02 : EFFB;
  D03 : EFFB;
  D04 : EFFB;
  D05 : EFFB;
  D06 : E7DA;
  D07 : D79A;
  D08 : BF3B;
  D09 : B73A;
  D0A : B73B;
  D0B : B71B;
  D0C : AF3B;
  D0D : A6FB;
  D0E : A6DA;
  D0F : B71A;
  D10 : AF1A;
  D11 : A71A;
  D12 : AEFA;
  D13 : AF1A;
  D14 : AF1B;
  D15 : AF1A;
  D16 : A71A;
  D17 : A6FB;
  D18 : 9EDB;
  D19 : 9ED9;
  D1A : CF7A;
  D1B : D7BC;
  D1C : A6FB;
  D1D : AEF9;
  D1E : D778;
  D1F : CF99;
  D20 : C759;
  D21 : D758;
  D22 : D779;
  D23 : CF79;
  D24 : C758;
  D25 : D778;
  D26 : D798;
  D27 : C778;
  D28 : CF58;
  D29 : D778;
  D2A : BF5A;
  D2B : 9EFA;
  D2C : A6F9;
  D2D : AEF8;
  D2E : B718;
  D2F : BF19;
  D30 : BF19;
  D31 : C738;
  D32 : C718;
  D33 : C739;
  D34 : BF19;
  D35 : BF39;
  D36 : C739;
  D37 : B71A;
  D38 : AEDA;
  D39 : CF5A;
  D3A : E7DA;
  D3B : E7DA;
  D3C : EFFB;
  D3D : EFFB;
  D3E : EFFB;
  D3F : E7DA;
  D40 : E7DA;
  D41 : E7FB;
  D42 : EFFB;
  D43 : EFFB;
  D44 : E7DB;
  D45 : EFFB;
  D46 : E7DA;
  D47 : CF9B;
  D48 : A6FB;
  D49 : A6FA;
  D4A : A6DA;
  D4B : A6DA;
  D4C : A6FA;
  D4D : A6DA;
  D4E : A6D9;
  D4F : A6DA;
  D50 : A6D9;
  D51 : A6D9;
  D52 : A6D9;
  D53 : A6D9;
  D54 : 9EDA;
  D55 : 9EDA;
  D56 : 9EDA;
  D57 : 9EDA;
  D58 : 96DA;
  D59 : A6DA;
  D5A : D77A;
  D5B : D7BC;
  D5C : A6FB;
  D5D : AEF9;
  D5E : D778;
  D5F : CF79;
  D60 : BF58;
  D61 : CF58;
  D62 : D799;
  D63 : C759;
  D64 : BF38;
  D65 : CF78;
  D66 : D798;
  D67 : BF58;
  D68 : C738;
  D69 : D778;
  D6A : BF5A;
  D6B : 9EDA;
  D6C : A6F9;
  D6D : B718;
  D6E : C738;
  D6F : CF59;
  D70 : CF78;
  D71 : CF78;
  D72 : D778;
  D73 : D779;
  D74 : CF78;
  D75 : CF79;
  D76 : D779;
  D77 : BF3A;
  D78 : A6DB;
  D79 : CF59;
  D7A : E7DA;
  D7B : E7DB;
  D7C : EFFB;
  D7D : EFFB;
  D7E : EFFB;
  D7F : E7DA;
  D80 : E7DA;
  D81 : E7FB;
  D82 : EFFB;
  D83 : EFFB;
  D84 : E7DB;
  D85 : EFFB;
  D86 : E7DA;
  D87 : CF7B;
  D88 : 9EDB;
  D89 : A6D9;
  D8A : B6F9;
  D8B : B6F9;
  D8C : AEF9;
  D8D : B6F9;
  D8E : B6F9;
  D8F : B719;
  D90 : B6F9;
  D91 : B6F9;
  D92 : AEF9;
  D93 : AEF9;
  D94 : A6F9;
  D95 : A6D9;
  D96 : A6F9;
  D97 : A6FA;
  D98 : 9EDA;
  D99 : A6DA;
  D9A : D77A;
  D9B : D7BC;
  D9C : A6FB;
  D9D : AEF8;
  D9E : D778;
  D9F : CF79;
  DA0 : B738;
  DA1 : CF58;
  DA2 : DF99;
  DA3 : C759;
  DA4 : BF37;
  DA5 : D778;
  DA6 : D799;
  DA7 : BF58;
  DA8 : BF38;
  DA9 : CF78;
  DAA : BF5A;
  DAB : 9EDA;
  DAC : A6F9;
  DAD : BF18;
  DAE : C758;
  DAF : D778;
  DB0 : D798;
  DB1 : D778;
  DB2 : D778;
  DB3 : D778;
  DB4 : D798;
  DB5 : D779;
  DB6 : D799;
  DB7 : BF5B;
  DB8 : A6DB;
  DB9 : CF59;
  DBA : E7DA;
  DBB : E7DB;
  DBC : EFFB;
  DBD : EFFB;
  DBE : EFFB;
  DBF : E7DA;
  DC0 : E7FB;
  DC1 : E7FB;
  DC2 : EFFB;
  DC3 : EFFB;
  DC4 : E7DB;
  DC5 : EFDB;
  DC6 : E7DA;
  DC7 : CF7B;
  DC8 : A6DA;
  DC9 : B718;
  DCA : CF59;
  DCB : CF39;
  DCC : CF58;
  DCD : CF59;
  DCE : CF58;
  DCF : CF58;
  DD0 : CF58;
  DD1 : CF58;
  DD2 : CF58;
  DD3 : C758;
  DD4 : BF59;
  DD5 : AF18;
  DD6 : AF18;
  DD7 : AF39;
  DD8 : 9EFA;
  DD9 : 9EDA;
  DDA : D77A;
  DDB : D79C;
  DDC : A6FB;
  DDD : AED8;
  DDE : D778;
  DDF : CF78;
  DE0 : BF38;
  DE1 : CF58;
  DE2 : DF99;
  DE3 : C759;
  DE4 : BF37;
  DE5 : D778;
  DE6 : D799;
  DE7 : BF58;
  DE8 : C738;
  DE9 : CF78;
  DEA : BF5A;
  DEB : 9EDA;
  DEC : A6F9;
  DED : BF18;
  DEE : C758;
  DEF : D778;
  DF0 : D798;
  DF1 : D778;
  DF2 : D778;
  DF3 : D778;
  DF4 : D778;
  DF5 : D778;
  DF6 : D778;
  DF7 : BF5A;
  DF8 : A6DB;
  DF9 : C739;
  DFA : E7DA;
  DFB : E7DA;
  DFC : EFFB;
  DFD : EFDB;
  DFE : EFDB;
  DFF : E7DB;
  E00 : E7FB;
  E01 : E7FB;
  E02 : EFFB;
  E03 : EFFB;
  E04 : EFFB;
  E05 : EFDB;
  E06 : E7DB;
  E07 : C77B;
  E08 : 9EDA;
  E09 : B718;
  E0A : D779;
  E0B : D778;
  E0C : D778;
  E0D : CF79;
  E0E : CF78;
  E0F : D778;
  E10 : D778;
  E11 : D779;
  E12 : D779;
  E13 : CF78;
  E14 : C759;
  E15 : B718;
  E16 : B719;
  E17 : B739;
  E18 : 9EFA;
  E19 : 9EDA;
  E1A : CF7A;
  E1B : CF9C;
  E1C : A6FB;
  E1D : AED8;
  E1E : D778;
  E1F : CF78;
  E20 : BF58;
  E21 : CF57;
  E22 : DF99;
  E23 : CF58;
  E24 : C737;
  E25 : D778;
  E26 : D778;
  E27 : C758;
  E28 : C738;
  E29 : CF78;
  E2A : BF5B;
  E2B : 9EDA;
  E2C : A719;
  E2D : BF38;
  E2E : C758;
  E2F : D798;
  E30 : CF79;
  E31 : D779;
  E32 : D779;
  E33 : D778;
  E34 : CF78;
  E35 : CF78;
  E36 : D798;
  E37 : BF5A;
  E38 : A6DB;
  E39 : C739;
  E3A : E7DA;
  E3B : E7DA;
  E3C : EFFB;
  E3D : EFDB;
  E3E : EFDB;
  E3F : EFDB;
  E40 : E7DB;
  E41 : E7FB;
  E42 : EFFB;
  E43 : EFFB;
  E44 : EFFB;
  E45 : E7FB;
  E46 : E7DB;
  E47 : C77B;
  E48 : 9EDB;
  E49 : AF18;
  E4A : C758;
  E4B : CF59;
  E4C : D779;
  E4D : C758;
  E4E : C758;
  E4F : CF78;
  E50 : CF98;
  E51 : C758;
  E52 : C758;
  E53 : D778;
  E54 : C779;
  E55 : B738;
  E56 : AF38;
  E57 : AF39;
  E58 : 9EFA;
  E59 : 9EDA;
  E5A : CF59;
  E5B : CF7B;
  E5C : 9EFB;
  E5D : AEF9;
  E5E : D778;
  E5F : D778;
  E60 : CF79;
  E61 : D778;
  E62 : DF99;
  E63 : D779;
  E64 : CF78;
  E65 : DF78;
  E66 : D798;
  E67 : CF78;
  E68 : CF58;
  E69 : D778;
  E6A : BF5A;
  E6B : 9EDA;
  E6C : AEF9;
  E6D : BF18;
  E6E : C758;
  E6F : D798;
  E70 : CF79;
  E71 : C758;
  E72 : D779;
  E73 : D779;
  E74 : C758;
  E75 : C758;
  E76 : D798;
  E77 : BF5A;
  E78 : A6DB;
  E79 : C719;
  E7A : E7DA;
  E7B : E7DA;
  E7C : EFFB;
  E7D : EFFB;
  E7E : EFFB;
  E7F : EFDB;
  E80 : E7DB;
  E81 : E7DB;
  E82 : EFFB;
  E83 : EFFB;
  E84 : EFFB;
  E85 : E7FB;
  E86 : E7DB;
  E87 : C77B;
  E88 : 9EDB;
  E89 : AEF8;
  E8A : BF38;
  E8B : C759;
  E8C : D779;
  E8D : BF58;
  E8E : BF37;
  E8F : CF78;
  E90 : CF78;
  E91 : BF38;
  E92 : BF58;
  E93 : D778;
  E94 : C758;
  E95 : B718;
  E96 : AF38;
  E97 : AF39;
  E98 : 9EFA;
  E99 : 9EBA;
  E9A : C739;
  E9B : C77B;
  E9C : 9EFB;
  E9D : AEF9;
  E9E : D778;
  E9F : D778;
  EA0 : D779;
  EA1 : DF78;
  EA2 : DF99;
  EA3 : D799;
  EA4 : D798;
  EA5 : DF78;
  EA6 : D798;
  EA7 : CF98;
  EA8 : DF78;
  EA9 : D778;
  EAA : BF5A;
  EAB : 9EDA;
  EAC : AEF9;
  EAD : BF18;
  EAE : CF58;
  EAF : D798;
  EB0 : C758;
  EB1 : BF38;
  EB2 : CF79;
  EB3 : D778;
  EB4 : BF38;
  EB5 : C738;
  EB6 : D799;
  EB7 : BF5A;
  EB8 : A6DB;
  EB9 : C719;
  EBA : E7DA;
  EBB : E7DA;
  EBC : EFFB;
  EBD : EFFB;
  EBE : EFFB;
  EBF : E7DA;
  EC0 : E7DB;
  EC1 : E7FB;
  EC2 : EFFB;
  EC3 : EFFB;
  EC4 : E7DB;
  EC5 : EFFB;
  EC6 : E7DA;
  EC7 : C77B;
  EC8 : A6DA;
  EC9 : AEF8;
  ECA : BF38;
  ECB : C759;
  ECC : D778;
  ECD : BF58;
  ECE : BF38;
  ECF : CF79;
  ED0 : CF79;
  ED1 : BF38;
  ED2 : BF38;
  ED3 : D778;
  ED4 : C759;
  ED5 : B718;
  ED6 : B718;
  ED7 : B739;
  ED8 : 9EFA;
  ED9 : 9EDA;
  EDA : BF39;
  EDB : BF5A;
  EDC : 9EFB;
  EDD : AEF9;
  EDE : D778;
  EDF : D778;
  EE0 : D779;
  EE1 : DF78;
  EE2 : DF78;
  EE3 : D799;
  EE4 : DF98;
  EE5 : DF78;
  EE6 : D798;
  EE7 : D798;
  EE8 : DF78;
  EE9 : D778;
  EEA : BF5A;
  EEB : 9EFA;
  EEC : AEF9;
  EED : BF18;
  EEE : CF58;
  EEF : D798;
  EF0 : C778;
  EF1 : BF38;
  EF2 : CF78;
  EF3 : D778;
  EF4 : BF38;
  EF5 : BF38;
  EF6 : D779;
  EF7 : BF5A;
  EF8 : A6DB;
  EF9 : C739;
  EFA : E7DA;
  EFB : E7DB;
  EFC : EFFB;
  EFD : EFFB;
  EFE : EFFB;
  EFF : E7DA;
  F00 : E7DB;
  F01 : E7DA;
  F02 : EFFB;
  F03 : EFFB;
  F04 : E7DB;
  F05 : EFDB;
  F06 : E7DA;
  F07 : CF5B;
  F08 : 9EFA;
  F09 : AEF8;
  F0A : BF18;
  F0B : CF78;
  F0C : D798;
  F0D : C758;
  F0E : BF37;
  F0F : CF78;
  F10 : CF78;
  F11 : BF38;
  F12 : C738;
  F13 : D779;
  F14 : C779;
  F15 : B738;
  F16 : B718;
  F17 : B739;
  F18 : 9EFB;
  F19 : 9EB9;
  F1A : AF19;
  F1B : AF3A;
  F1C : A6DA;
  F1D : AEF9;
  F1E : D778;
  F1F : D779;
  F20 : D799;
  F21 : DF78;
  F22 : DF78;
  F23 : D799;
  F24 : D798;
  F25 : DF78;
  F26 : DF98;
  F27 : D798;
  F28 : D779;
  F29 : D778;
  F2A : C75A;
  F2B : 9EFA;
  F2C : AEF9;
  F2D : BF18;
  F2E : C758;
  F2F : D778;
  F30 : C778;
  F31 : BF37;
  F32 : D758;
  F33 : D798;
  F34 : BF38;
  F35 : C738;
  F36 : D778;
  F37 : BF5A;
  F38 : A6DB;
  F39 : BF39;
  F3A : E7BA;
  F3B : E7DA;
  F3C : EFFB;
  F3D : EFDB;
  F3E : EFDB;
  F3F : E7DA;
  F40 : EFDB;
  F41 : E7DB;
  F42 : EFFB;
  F43 : EFFB;
  F44 : EFFB;
  F45 : EFDB;
  F46 : E7DB;
  F47 : CF5B;
  F48 : 9EFA;
  F49 : B718;
  F4A : C738;
  F4B : CF78;
  F4C : D798;
  F4D : C758;
  F4E : C757;
  F4F : D778;
  F50 : CF78;
  F51 : BF38;
  F52 : C739;
  F53 : C77A;
  F54 : B75A;
  F55 : AF1A;
  F56 : AF19;
  F57 : AF1A;
  F58 : 9EFB;
  F59 : 9EBA;
  F5A : A6F9;
  F5B : A71A;
  F5C : 9EDA;
  F5D : A6D9;
  F5E : D778;
  F5F : CF79;
  F60 : CF78;
  F61 : D778;
  F62 : DF78;
  F63 : D799;
  F64 : D798;
  F65 : DF78;
  F66 : D779;
  F67 : CF98;
  F68 : CF79;
  F69 : D778;
  F6A : C75A;
  F6B : 9EDA;
  F6C : AEF9;
  F6D : BF18;
  F6E : C758;
  F6F : D778;
  F70 : C778;
  F71 : C737;
  F72 : D758;
  F73 : D778;
  F74 : BF58;
  F75 : C738;
  F76 : D778;
  F77 : BF5A;
  F78 : A6DB;
  F79 : BF19;
  F7A : E7BA;
  F7B : E7DA;
  F7C : EFFB;
  F7D : EFDB;
  F7E : EFDB;
  F7F : EFDA;
  F80 : EFDB;
  F81 : E7DB;
  F82 : EFFB;
  F83 : EFFB;
  F84 : EFFB;
  F85 : EFFB;
  F86 : E7DB;
  F87 : CF5B;
  F88 : 9EFA;
  F89 : B718;
  F8A : CF58;
  F8B : D778;
  F8C : D798;
  F8D : CF78;
  F8E : CF78;
  F8F : D778;
  F90 : D779;
  F91 : C759;
  F92 : C739;
  F93 : AF3A;
  F94 : A71A;
  F95 : 9EFA;
  F96 : A6F9;
  F97 : A6FA;
  F98 : 96DA;
  F99 : 96BA;
  F9A : 9EDA;
  F9B : 9EFA;
  F9C : 9EDA;
  F9D : A6D9;
  F9E : D778;
  F9F : CF79;
  FA0 : C758;
  FA1 : D778;
  FA2 : DF78;
  FA3 : CF78;
  FA4 : C758;
  FA5 : D778;
  FA6 : D779;
  FA7 : C778;
  FA8 : C758;
  FA9 : D778;
  FAA : C75A;
  FAB : 9EDA;
  FAC : AEF9;
  FAD : BF18;
  FAE : C758;
  FAF : D778;
  FB0 : CF78;
  FB1 : CF57;
  FB2 : DF58;
  FB3 : D779;
  FB4 : CF78;
  FB5 : CF58;
  FB6 : D778;
  FB7 : BF5A;
  FB8 : A6DB;
  FB9 : BF19;
  FBA : E7BA;
  FBB : E7DA;
  FBC : EFFB;
  FBD : EFDA;
  FBE : EFDB;
  FBF : EFBA;
  FC0 : E7DA;
  FC1 : E7DA;
  FC2 : EFFB;
  FC3 : EFFB;
  FC4 : EFFB;
  FC5 : E7FB;
  FC6 : E7DA;
  FC7 : CF5B;
  FC8 : 9EFA;
  FC9 : BF38;
  FCA : D778;
  FCB : D778;
  FCC : D778;
  FCD : D799;
  FCE : D798;
  FCF : D778;
  FD0 : D779;
  FD1 : CF79;
  FD2 : C75A;
  FD3 : 9EDA;
  FD4 : 9EDA;
  FD5 : 9EDA;
  FD6 : 9EDA;
  FD7 : 9EB9;
  FD8 : 9EDA;
  FD9 : 9EBA;
  FDA : 9EB9;
  FDB : 96DA;
  FDC : 96DB;
  FDD : A6F9;
  FDE : D758;
  FDF : CF59;
  FE0 : BF38;
  FE1 : CF58;
  FE2 : DF99;
  FE3 : C758;
  FE4 : BF37;
  FE5 : D778;
  FE6 : D799;
  FE7 : BF58;
  FE8 : BF38;
  FE9 : CF78;
  FEA : BF5A;
  FEB : 9EDA;
  FEC : A6F9;
  FED : BF18;
  FEE : C758;
  FEF : D778;
  FF0 : CF98;
  FF1 : D798;
  FF2 : DF78;
  FF3 : D799;
  FF4 : CF98;
  FF5 : D798;
  FF6 : D778;
  FF7 : BF5A;
  FF8 : A6DB;
  FF9 : C719;
  FFA : E7BA;
  FFB : E7DA;
  FFC : EFFB;
  FFD : EFDB;
  FFE : EFFB;
  FFF : E7BA;
  1000 : E7DA;
  1001 : E7FB;
  1002 : EFFB;
  1003 : EFFB;
  1004 : E7DB;
  1005 : EFFB;
  1006 : E7BA;
  1007 : C75B;
  1008 : 9EFA;
  1009 : B718;
  100A : CF58;
  100B : CF78;
  100C : D798;
  100D : CF78;
  100E : C778;
  100F : D778;
  1010 : CF79;
  1011 : C779;
  1012 : BF3A;
  1013 : 9EDA;
  1014 : A6F9;
  1015 : B718;
  1016 : B719;
  1017 : B6F9;
  1018 : B718;
  1019 : B6F9;
  101A : AEF9;
  101B : A6DA;
  101C : 9EBA;
  101D : AED8;
  101E : D778;
  101F : CF79;
  1020 : BF58;
  1021 : CF58;
  1022 : DF99;
  1023 : C778;
  1024 : BF37;
  1025 : D778;
  1026 : D799;
  1027 : BF58;
  1028 : BF38;
  1029 : CF78;
  102A : BF5A;
  102B : 9EFA;
  102C : A6F9;
  102D : BF18;
  102E : C758;
  102F : D778;
  1030 : CF78;
  1031 : CF78;
  1032 : D778;
  1033 : D799;
  1034 : C778;
  1035 : CF78;
  1036 : D778;
  1037 : BF5A;
  1038 : A6DB;
  1039 : C719;
  103A : E7BA;
  103B : E7DB;
  103C : EFFB;
  103D : EFDB;
  103E : EFFB;
  103F : E79A;
  1040 : E7DA;
  1041 : E7FB;
  1042 : EFFB;
  1043 : EFDB;
  1044 : E7FB;
  1045 : EFFB;
  1046 : E7BA;
  1047 : C75B;
  1048 : 9EFB;
  1049 : B6F8;
  104A : BF38;
  104B : CF58;
  104C : D798;
  104D : C778;
  104E : BF57;
  104F : D778;
  1050 : CF78;
  1051 : BF59;
  1052 : B73A;
  1053 : 9EDA;
  1054 : B6F8;
  1055 : CF58;
  1056 : C759;
  1057 : CF59;
  1058 : CF58;
  1059 : C759;
  105A : B738;
  105B : A719;
  105C : A6DA;
  105D : AED8;
  105E : CF78;
  105F : CF79;
  1060 : BF38;
  1061 : CF58;
  1062 : D799;
  1063 : C758;
  1064 : BF37;
  1065 : D778;
  1066 : D799;
  1067 : BF58;
  1068 : BF18;
  1069 : CF78;
  106A : BF5A;
  106B : 9EFA;
  106C : A6F9;
  106D : BF18;
  106E : C758;
  106F : D799;
  1070 : C778;
  1071 : C738;
  1072 : D758;
  1073 : D799;
  1074 : BF58;
  1075 : C758;
  1076 : D778;
  1077 : BF5A;
  1078 : A6DB;
  1079 : BF19;
  107A : E7BA;
  107B : E7DA;
  107C : EFFB;
  107D : EFDB;
  107E : EFDB;
  107F : E79A;
  1080 : EFDB;
  1081 : E7FB;
  1082 : EFFB;
  1083 : EFDB;
  1084 : E7FB;
  1085 : E7DB;
  1086 : E7BA;
  1087 : C75B;
  1088 : 9EFB;
  1089 : AEF9;
  108A : BF18;
  108B : CF58;
  108C : D798;
  108D : BF58;
  108E : BF37;
  108F : D778;
  1090 : CF78;
  1091 : B758;
  1092 : AF3A;
  1093 : 9EDA;
  1094 : B6F8;
  1095 : D778;
  1096 : CF79;
  1097 : CF79;
  1098 : D778;
  1099 : CF79;
  109A : BF58;
  109B : AF19;
  109C : 9EDA;
  109D : AED9;
  109E : CF78;
  109F : CF79;
  10A0 : BF38;
  10A1 : CF58;
  10A2 : D799;
  10A3 : CF58;
  10A4 : C737;
  10A5 : D778;
  10A6 : D798;
  10A7 : C758;
  10A8 : C738;
  10A9 : CF78;
  10AA : BF5A;
  10AB : 9EDA;
  10AC : A6F9;
  10AD : B717;
  10AE : C758;
  10AF : D778;
  10B0 : C758;
  10B1 : BF17;
  10B2 : D759;
  10B3 : D799;
  10B4 : BF58;
  10B5 : C738;
  10B6 : D779;
  10B7 : BF5A;
  10B8 : A6DB;
  10B9 : BF19;
  10BA : E7BA;
  10BB : E7DA;
  10BC : EFFB;
  10BD : EFDB;
  10BE : EFDB;
  10BF : E79A;
  10C0 : EFDB;
  10C1 : E7FB;
  10C2 : EFFB;
  10C3 : EFDB;
  10C4 : EFFB;
  10C5 : E7BA;
  10C6 : E7BA;
  10C7 : C75B;
  10C8 : 9EFA;
  10C9 : AF18;
  10CA : BF38;
  10CB : CF59;
  10CC : D798;
  10CD : BF58;
  10CE : BF37;
  10CF : D759;
  10D0 : CF78;
  10D1 : B758;
  10D2 : AF1B;
  10D3 : 9EDB;
  10D4 : B6F8;
  10D5 : D778;
  10D6 : C779;
  10D7 : BF58;
  10D8 : CF58;
  10D9 : CF78;
  10DA : B758;
  10DB : A719;
  10DC : 9EDA;
  10DD : A6D9;
  10DE : CF78;
  10DF : CF79;
  10E0 : CF58;
  10E1 : D758;
  10E2 : D799;
  10E3 : CF78;
  10E4 : CF58;
  10E5 : D778;
  10E6 : D799;
  10E7 : CF78;
  10E8 : CF58;
  10E9 : CF79;
  10EA : BF5A;
  10EB : 9EDB;
  10EC : A6F8;
  10ED : B737;
  10EE : C738;
  10EF : D778;
  10F0 : C758;
  10F1 : BF37;
  10F2 : D758;
  10F3 : D799;
  10F4 : BF58;
  10F5 : C737;
  10F6 : D779;
  10F7 : BF5A;
  10F8 : A6DA;
  10F9 : BF19;
  10FA : E7BA;
  10FB : E7DA;
  10FC : EFFB;
  10FD : EFDA;
  10FE : EFDA;
  10FF : E79A;
  1100 : EFDA;
  1101 : E7DB;
  1102 : E7FB;
  1103 : EFDB;
  1104 : E7DB;
  1105 : DF99;
  1106 : DF9A;
  1107 : C75B;
  1108 : 9EDA;
  1109 : AEF8;
  110A : BF17;
  110B : CF39;
  110C : D779;
  110D : BF58;
  110E : BF37;
  110F : D759;
  1110 : CF79;
  1111 : B757;
  1112 : AEFA;
  1113 : 9EDA;
  1114 : B718;
  1115 : D778;
  1116 : BF58;
  1117 : B738;
  1118 : C757;
  1119 : CF78;
  111A : B758;
  111B : A738;
  111C : 9ED9;
  111D : A6D8;
  111E : CF58;
  111F : CF78;
  1120 : CF98;
  1121 : D778;
  1122 : D778;
  1123 : CF98;
  1124 : D778;
  1125 : D779;
  1126 : D799;
  1127 : D778;
  1128 : CF99;
  1129 : CF78;
  112A : BF7A;
  112B : 9EDA;
  112C : A6F8;
  112D : B736;
  112E : C738;
  112F : CF78;
  1130 : C757;
  1131 : BF37;
  1132 : D758;
  1133 : D798;
  1134 : BF38;
  1135 : C737;
  1136 : D779;
  1137 : BF5A;
  1138 : A6DA;
  1139 : BF19;
  113A : E79A;
  113B : E7DA;
  113C : EFFB;
  113D : E7DA;
  113E : E7BA;
  113F : E79A;
  1140 : E7BA;
  1141 : E7DA;
  1142 : E7BA;
  1143 : E7BA;
  1144 : E7BA;
  1145 : D779;
  1146 : DF9A;
  1147 : BF5B;
  1148 : 9EDA;
  1149 : B6F8;
  114A : C758;
  114B : D758;
  114C : D779;
  114D : C778;
  114E : C757;
  114F : D779;
  1150 : CF79;
  1151 : BF78;
  1152 : B71A;
  1153 : 9EDA;
  1154 : B718;
  1155 : CF78;
  1156 : BF58;
  1157 : B738;
  1158 : C757;
  1159 : CF78;
  115A : B758;
  115B : A718;
  115C : 96B9;
  115D : A6D8;
  115E : CF57;
  115F : C758;
  1160 : C758;
  1161 : CF58;
  1162 : D778;
  1163 : CF78;
  1164 : C758;
  1165 : D778;
  1166 : D779;
  1167 : C758;
  1168 : C758;
  1169 : CF78;
  116A : BF5A;
  116B : 9EDA;
  116C : A6F8;
  116D : B716;
  116E : C738;
  116F : CF78;
  1170 : C757;
  1171 : C737;
  1172 : D758;
  1173 : D798;
  1174 : C758;
  1175 : CF57;
  1176 : D779;
  1177 : BF5A;
  1178 : A6DA;
  1179 : BF19;
  117A : DF9A;
  117B : E7DA;
  117C : EFFB;
  117D : E7DA;
  117E : E7BA;
  117F : E79A;
  1180 : DFB9;
  1181 : DFB9;
  1182 : DFB9;
  1183 : DF9A;
  1184 : DF9A;
  1185 : D778;
  1186 : D79A;
  1187 : BF5B;
  1188 : 9EDA;
  1189 : B719;
  118A : C779;
  118B : D778;
  118C : D779;
  118D : CF79;
  118E : CF78;
  118F : D778;
  1190 : CF79;
  1191 : C799;
  1192 : BF3A;
  1193 : 9EDA;
  1194 : B718;
  1195 : CF78;
  1196 : BF58;
  1197 : B717;
  1198 : C757;
  1199 : C778;
  119A : AF58;
  119B : A738;
  119C : 96D9;
  119D : 9ED7;
  119E : C777;
  119F : BF78;
  11A0 : B738;
  11A1 : C738;
  11A2 : D778;
  11A3 : C759;
  11A4 : BF38;
  11A5 : CF78;
  11A6 : CF79;
  11A7 : BF39;
  11A8 : BF38;
  11A9 : CF78;
  11AA : B759;
  11AB : 96D9;
  11AC : 9EF7;
  11AD : AF37;
  11AE : BF57;
  11AF : C797;
  11B0 : C797;
  11B1 : CF77;
  11B2 : D758;
  11B3 : D778;
  11B4 : CF78;
  11B5 : CF78;
  11B6 : D779;
  11B7 : BF5A;
  11B8 : A6DA;
  11B9 : BF19;
  11BA : DF9A;
  11BB : E7DA;
  11BC : EFFB;
  11BD : E7BA;
  11BE : E79A;
  11BF : DF99;
  11C0 : BF77;
  11C1 : BF97;
  11C2 : BF77;
  11C3 : CF78;
  11C4 : D779;
  11C5 : CF78;
  11C6 : D779;
  11C7 : C73A;
  11C8 : 9EDA;
  11C9 : AF19;
  11CA : C77A;
  11CB : CF78;
  11CC : D779;
  11CD : C77A;
  11CE : CF79;
  11CF : D779;
  11D0 : CF7A;
  11D1 : BF7B;
  11D2 : BF3B;
  11D3 : 9EDA;
  11D4 : B718;
  11D5 : CF78;
  11D6 : BF57;
  11D7 : B737;
  11D8 : B756;
  11D9 : B776;
  11DA : 9F56;
  11DB : 9716;
  11DC : 86D7;
  11DD : 96F6;
  11DE : AF76;
  11DF : AF58;
  11E0 : A719;
  11E1 : BF38;
  11E2 : CF78;
  11E3 : BF39;
  11E4 : AF18;
  11E5 : CF78;
  11E6 : CF99;
  11E7 : B739;
  11E8 : B718;
  11E9 : CF58;
  11EA : B778;
  11EB : 8EF7;
  11EC : 8EF6;
  11ED : 9735;
  11EE : A756;
  11EF : B776;
  11F0 : B796;
  11F1 : BF76;
  11F2 : D757;
  11F3 : CF78;
  11F4 : C778;
  11F5 : CF77;
  11F6 : D778;
  11F7 : BF5A;
  11F8 : A6DA;
  11F9 : BF19;
  11FA : DF9A;
  11FB : E7DA;
  11FC : E7DA;
  11FD : E79A;
  11FE : D779;
  11FF : BF36;
  1200 : 86B1;
  1201 : 86B1;
  1202 : 86B1;
  1203 : 96B3;
  1204 : C758;
  1205 : C778;
  1206 : CF79;
  1207 : BF3A;
  1208 : 96DA;
  1209 : A6D9;
  120A : A6F9;
  120B : C757;
  120C : CF79;
  120D : AF1B;
  120E : AEF9;
  120F : CF59;
  1210 : C75A;
  1211 : A6FA;
  1212 : 9EDA;
  1213 : 96B9;
  1214 : AF17;
  1215 : CF78;
  1216 : BF77;
  1217 : BF77;
  1218 : 96F3;
  1219 : 7E90;
  121A : 6EB1;
  121B : 6E90;
  121C : 6672;
  121D : 6E71;
  121E : 7E91;
  121F : 86B4;
  1220 : 96D8;
  1221 : B717;
  1222 : CF98;
  1223 : B719;
  1224 : A6D8;
  1225 : C737;
  1226 : C779;
  1227 : 9F1A;
  1228 : A6F7;
  1229 : C777;
  122A : AF56;
  122B : 6E92;
  122C : 6E71;
  122D : 6E91;
  122E : 7691;
  122F : 7E91;
  1230 : 7EB1;
  1231 : 8691;
  1232 : BF56;
  1233 : C798;
  1234 : B757;
  1235 : BF56;
  1236 : CF78;
  1237 : B75A;
  1238 : 9EDA;
  1239 : BF19;
  123A : DF79;
  123B : E7BA;
  123C : E79A;
  123D : DF79;
  123E : AF35;
  123F : 6E8F;
  1240 : 6E6F;
  1241 : 6E6F;
  1242 : 6E8F;
  1243 : 7E71;
  1244 : BF36;
  1245 : BF77;
  1246 : BF99;
  1247 : B73A;
  1248 : 96DA;
  1249 : 96DA;
  124A : 9EDA;
  124B : BF38;
  124C : CF79;
  124D : A71B;
  124E : A6D9;
  124F : C758;
  1250 : C759;
  1251 : 9EDA;
  1252 : 96DA;
  1253 : 96D9;
  1254 : A717;
  1255 : BF77;
  1256 : B797;
  1257 : B797;
  1258 : 7ED1;
  1259 : 664E;
  125A : 5E6F;
  125B : 5E6E;
  125C : 5E6F;
  125D : 5E6E;
  125E : 666F;
  125F : 6E72;
  1260 : 8ED7;
  1261 : AF16;
  1262 : C797;
  1263 : AF19;
  1264 : A6D8;
  1265 : C736;
  1266 : C778;
  1267 : 96F9;
  1268 : 9EF6;
  1269 : BF76;
  126A : 9F75;
  126B : 668F;
  126C : 5E6F;
  126D : 5E6F;
  126E : 666E;
  126F : 666F;
  1270 : 666F;
  1271 : 766F;
  1272 : AF35;
  1273 : BF77;
  1274 : AF57;
  1275 : B736;
  1276 : CF58;
  1277 : B75A;
  1278 : 9EDA;
  1279 : BF19;
  127A : DF79;
  127B : DF7A;
  127C : DF79;
  127D : C757;
  127E : 76B0;
  127F : 5E8E;
  1280 : 668E;
  1281 : 668E;
  1282 : 66AE;
  1283 : 7690;
  1284 : 96F3;
  1285 : 9F14;
  1286 : 9F15;
  1287 : 9EF7;
  1288 : 8EDA;
  1289 : 96DA;
  128A : 96BA;
  128B : B738;
  128C : CF79;
  128D : A6FA;
  128E : 9ED8;
  128F : C757;
  1290 : C759;
  1291 : 96DA;
  1292 : 96DA;
  1293 : 8ED9;
  1294 : 96F6;
  1295 : 9714;
  1296 : 8F33;
  1297 : 9734;
  1298 : 76D0;
  1299 : 5E8E;
  129A : 5EAE;
  129B : 5EAE;
  129C : 5E8E;
  129D : 5E8E;
  129E : 5E8E;
  129F : 6690;
  12A0 : 7694;
  12A1 : 8ED3;
  12A2 : 9F14;
  12A3 : A717;
  12A4 : B717;
  12A5 : C756;
  12A6 : BF77;
  12A7 : 86D6;
  12A8 : 86B4;
  12A9 : 9713;
  12AA : 8712;
  12AB : 5EAE;
  12AC : 5EAE;
  12AD : 5EAE;
  12AE : 5E8E;
  12AF : 5EAE;
  12B0 : 5EAE;
  12B1 : 6E8F;
  12B2 : 8EF3;
  12B3 : 9F14;
  12B4 : 8EF4;
  12B5 : 9ED4;
  12B6 : C758;
  12B7 : B759;
  12B8 : 9ED9;
  12B9 : BF19;
  12BA : D779;
  12BB : DF79;
  12BC : DF79;
  12BD : B756;
  12BE : 5E8E;
  12BF : 5EAE;
  12C0 : 66EE;
  12C1 : 66EE;
  12C2 : 6EEF;
  12C3 : 6EEF;
  12C4 : 668F;
  12C5 : 6E6F;
  12C6 : 6E50;
  12C7 : 7674;
  12C8 : 8ED9;
  12C9 : 8ED9;
  12CA : 96B8;
  12CB : B719;
  12CC : CF79;
  12CD : A6F9;
  12CE : 9ED8;
  12CF : BF57;
  12D0 : BF79;
  12D1 : 8EDA;
  12D2 : 8ED8;
  12D3 : 86D8;
  12D4 : 76B4;
  12D5 : 6670;
  12D6 : 668F;
  12D7 : 666F;
  12D8 : 66CF;
  12D9 : 66EE;
  12DA : 66EE;
  12DB : 66EE;
  12DC : 66EE;
  12DD : 66CE;
  12DE : 66EE;
  12DF : 66CF;
  12E0 : 666F;
  12E1 : 6E70;
  12E2 : 6E50;
  12E3 : 9EF4;
  12E4 : BF77;
  12E5 : C777;
  12E6 : B776;
  12E7 : 76B1;
  12E8 : 6670;
  12E9 : 666F;
  12EA : 66AF;
  12EB : 66EE;
  12EC : 66EE;
  12ED : 66EE;
  12EE : 66EE;
  12EF : 66EE;
  12F0 : 66EE;
  12F1 : 66CF;
  12F2 : 6E8F;
  12F3 : 6E6F;
  12F4 : 6E70;
  12F5 : 8671;
  12F6 : BF57;
  12F7 : AF59;
  12F8 : 96D8;
  12F9 : B6F9;
  12FA : D779;
  12FB : D779;
  12FC : D778;
  12FD : BF76;
  12FE : 6EEF;
  12FF : 5ECE;
  1300 : 670E;
  1301 : 670E;
  1302 : 670E;
  1303 : 66EF;
  1304 : 5EAE;
  1305 : 5E6E;
  1306 : 5E4F;
  1307 : 6E72;
  1308 : 7EB6;
  1309 : 86B6;
  130A : 86B5;
  130B : B6F7;
  130C : CF58;
  130D : AF18;
  130E : A6F7;
  130F : AF56;
  1310 : A756;
  1311 : 7ED7;
  1312 : 7ED5;
  1313 : 76D5;
  1314 : 6EB2;
  1315 : 5E4F;
  1316 : 566E;
  1317 : 5E6E;
  1318 : 5ECE;
  1319 : 670E;
  131A : 5EEE;
  131B : 5EEE;
  131C : 5EEE;
  131D : 5EEE;
  131E : 5F0E;
  131F : 5ECE;
  1320 : 5E8E;
  1321 : 666F;
  1322 : 666F;
  1323 : 8EF2;
  1324 : A775;
  1325 : A755;
  1326 : 9F54;
  1327 : 6EB0;
  1328 : 666E;
  1329 : 5E6E;
  132A : 5EAE;
  132B : 5EEE;
  132C : 5F0E;
  132D : 66EE;
  132E : 670E;
  132F : 5F0E;
  1330 : 670E;
  1331 : 66EE;
  1332 : 5E8E;
  1333 : 5E6E;
  1334 : 5E6E;
  1335 : 7690;
  1336 : A755;
  1337 : 9736;
  1338 : 86D6;
  1339 : A6F8;
  133A : C759;
  133B : CF58;
  133C : CF78;
  133D : AF75;
  133E : 6F2F;
  133F : 670E;
  1340 : 5F0E;
  1341 : 5F0E;
  1342 : 670E;
  1343 : 5EEE;
  1344 : 5ECE;
  1345 : 5ECE;
  1346 : 66AF;
  1347 : 6690;
  1348 : 5E71;
  1349 : 6671;
  134A : 6E51;
  134B : A6F5;
  134C : C777;
  134D : BF57;
  134E : AF57;
  134F : 8EF2;
  1350 : 6EB1;
  1351 : 6672;
  1352 : 6671;
  1353 : 6671;
  1354 : 5E6F;
  1355 : 564E;
  1356 : 568D;
  1357 : 5ECE;
  1358 : 5EEE;
  1359 : 5F0E;
  135A : 5EEE;
  135B : 5EEE;
  135C : 5EEE;
  135D : 5EEE;
  135E : 5EEE;
  135F : 5EEE;
  1360 : 5ECE;
  1361 : 66CE;
  1362 : 66CE;
  1363 : 6EAF;
  1364 : 76B0;
  1365 : 76B1;
  1366 : 6ED0;
  1367 : 66CF;
  1368 : 66CE;
  1369 : 5ECE;
  136A : 5EEE;
  136B : 5EEE;
  136C : 5EEE;
  136D : 5EEE;
  136E : 5F0E;
  136F : 5EED;
  1370 : 5EEE;
  1371 : 5EEE;
  1372 : 5ECE;
  1373 : 66AE;
  1374 : 5ECE;
  1375 : 66CF;
  1376 : 76B1;
  1377 : 6E92;
  1378 : 6E72;
  1379 : 8E95;
  137A : 9F19;
  137B : BF38;
  137C : CF98;
  137D : 8F12;
  137E : 672E;
  137F : 672E;
  1380 : 5F0D;
  1381 : 5F0D;
  1382 : 5F0D;
  1383 : 5EEE;
  1384 : 5EEE;
  1385 : 5EEE;
  1386 : 66EF;
  1387 : 5EAF;
  1388 : 564E;
  1389 : 564E;
  138A : 5E2F;
  138B : 96D3;
  138C : B776;
  138D : B776;
  138E : AF75;
  138F : 6ED0;
  1390 : 566E;
  1391 : 5E4F;
  1392 : 566E;
  1393 : 566E;
  1394 : 566E;
  1395 : 564D;
  1396 : 5EAE;
  1397 : 5EEE;
  1398 : 5EEE;
  1399 : 5EED;
  139A : 5EED;
  139B : 5EED;
  139C : 5EEE;
  139D : 5EEE;
  139E : 5F0E;
  139F : 5EEE;
  13A0 : 5EEE;
  13A1 : 670E;
  13A2 : 670E;
  13A3 : 5EAE;
  13A4 : 566E;
  13A5 : 566E;
  13A6 : 568E;
  13A7 : 66CE;
  13A8 : 66EE;
  13A9 : 5EEE;
  13AA : 5F0E;
  13AB : 5EED;
  13AC : 5EED;
  13AD : 5EEE;
  13AE : 5EEE;
  13AF : 5ECD;
  13B0 : 5ECE;
  13B1 : 5ECE;
  13B2 : 5ECE;
  13B3 : 66CE;
  13B4 : 66CE;
  13B5 : 66CF;
  13B6 : 5E4E;
  13B7 : 5E4F;
  13B8 : 5E4F;
  13B9 : 7673;
  13BA : 86D7;
  13BB : A716;
  13BC : BF76;
  13BD : 76F0;
  13BE : 670E;
  13BF : 670E;
  13C0 : 5F0D;
  13C1 : 5F0D;
  13C2 : 5F0D;
  13C3 : 5F0E;
  13C4 : 5F0E;
  13C5 : 5EEE;
  13C6 : 5EEE;
  13C7 : 5EAE;
  13C8 : 562E;
  13C9 : 564E;
  13CA : 5E2E;
  13CB : 7EB1;
  13CC : 8F13;
  13CD : 8F13;
  13CE : 8712;
  13CF : 6ECF;
  13D0 : 5EAE;
  13D1 : 668E;
  13D2 : 5EAD;
  13D3 : 56AD;
  13D4 : 56AE;
  13D5 : 568D;
  13D6 : 56AE;
  13D7 : 5EAE;
  13D8 : 56AD;
  13D9 : 56AD;
  13DA : 5EED;
  13DB : 5EED;
  13DC : 5EEE;
  13DD : 5EEE;
  13DE : 5F0D;
  13DF : 5EED;
  13E0 : 5F0E;
  13E1 : 5F0E;
  13E2 : 670E;
  13E3 : 5ECE;
  13E4 : 5E8E;
  13E5 : 56AE;
  13E6 : 56AE;
  13E7 : 5E8E;
  13E8 : 5EAD;
  13E9 : 5EEE;
  13EA : 5F0E;
  13EB : 5EED;
  13EC : 5EED;
  13ED : 5EEE;
  13EE : 5ECE;
  13EF : 56AD;
  13F0 : 56AD;
  13F1 : 5E8D;
  13F2 : 5E8E;
  13F3 : 5E8E;
  13F4 : 5E8E;
  13F5 : 5EAE;
  13F6 : 5E8E;
  13F7 : 5E8F;
  13F8 : 666F;
  13F9 : 6E91;
  13FA : 76B2;
  13FB : 86F2;
  13FC : 9713;
  13FD : 6EF0;
  13FE : 66EE;
  13FF : 670E;
  1400 : 5F0E;
  1401 : 5F0E;
  1402 : 5F0D;
  1403 : 5F0E;
  1404 : 5F0E;
  1405 : 5EED;
  1406 : 5EEE;
  1407 : 5EAE;
  1408 : 562E;
  1409 : 564E;
  140A : 564E;
  140B : 5E2E;
  140C : 5E4F;
  140D : 566E;
  140E : 5E6D;
  140F : 66CE;
  1410 : 66EE;
  1411 : 66EE;
  1412 : 5EEE;
  1413 : 5EEE;
  1414 : 5EEE;
  1415 : 5EEE;
  1416 : 568D;
  1417 : 564D;
  1418 : 564C;
  1419 : 4E6C;
  141A : 5ECD;
  141B : 5EED;
  141C : 5EEE;
  141D : 5F0E;
  141E : 5F0E;
  141F : 5F0D;
  1420 : 5F0D;
  1421 : 5F0D;
  1422 : 5F0E;
  1423 : 5EEE;
  1424 : 5EEE;
  1425 : 5EEE;
  1426 : 5ECE;
  1427 : 5E4D;
  1428 : 564D;
  1429 : 5EED;
  142A : 5EED;
  142B : 5EED;
  142C : 5EED;
  142D : 5EEE;
  142E : 56AD;
  142F : 4E4C;
  1430 : 4E4C;
  1431 : 564C;
  1432 : 564D;
  1433 : 564D;
  1434 : 564D;
  1435 : 566D;
  1436 : 5ECE;
  1437 : 66CE;
  1438 : 66CF;
  1439 : 5EAF;
  143A : 5E4E;
  143B : 5E4E;
  143C : 5E6E;
  143D : 66EF;
  143E : 670E;
  143F : 672E;
  1440 : 5EED;
  1441 : 5EED;
  1442 : 5F0D;
  1443 : 5EED;
  1444 : 5EED;
  1445 : 5EED;
  1446 : 5EED;
  1447 : 5EAE;
  1448 : 564D;
  1449 : 564D;
  144A : 564D;
  144B : 564E;
  144C : 566D;
  144D : 568D;
  144E : 568D;
  144F : 66EE;
  1450 : 66EE;
  1451 : 66EE;
  1452 : 5F0E;
  1453 : 5F0E;
  1454 : 5EEE;
  1455 : 5EEE;
  1456 : 56AD;
  1457 : 566D;
  1458 : 566D;
  1459 : 566D;
  145A : 56AD;
  145B : 5EAD;
  145C : 5ECE;
  145D : 5ECE;
  145E : 5F0D;
  145F : 5EED;
  1460 : 5EED;
  1461 : 5EED;
  1462 : 5F0E;
  1463 : 5EEE;
  1464 : 5EEE;
  1465 : 5F0D;
  1466 : 5ECE;
  1467 : 564D;
  1468 : 564D;
  1469 : 5EED;
  146A : 5EED;
  146B : 56AD;
  146C : 5EAD;
  146D : 5EAE;
  146E : 56AD;
  146F : 4E6C;
  1470 : 566D;
  1471 : 566D;
  1472 : 566D;
  1473 : 566D;
  1474 : 566D;
  1475 : 568D;
  1476 : 5ECE;
  1477 : 5EAE;
  1478 : 5ECE;
  1479 : 5EAE;
  147A : 566D;
  147B : 5E6D;
  147C : 568E;
  147D : 5EEE;
  147E : 672E;
  147F : 672E;
  1480 : 5EED;
  1481 : 5EED;
  1482 : 5F0D;
  1483 : 5EED;
  1484 : 5EED;
  1485 : 5EED;
  1486 : 5EED;
  1487 : 56AD;
  1488 : 4E4C;
  1489 : 564D;
  148A : 4E4D;
  148B : 5E8D;
  148C : 5ECD;
  148D : 5ECE;
  148E : 5ECE;
  148F : 5EEE;
  1490 : 5EEE;
  1491 : 5F0E;
  1492 : 5F0E;
  1493 : 5F0E;
  1494 : 5F0E;
  1495 : 5EEE;
  1496 : 5ECD;
  1497 : 5EAD;
  1498 : 5EAD;
  1499 : 56AD;
  149A : 568D;
  149B : 566D;
  149C : 568D;
  149D : 568D;
  149E : 5F0D;
  149F : 5EED;
  14A0 : 5EED;
  14A1 : 5F0D;
  14A2 : 5F0D;
  14A3 : 5EED;
  14A4 : 5EED;
  14A5 : 5EED;
  14A6 : 5ECE;
  14A7 : 564D;
  14A8 : 564D;
  14A9 : 5EED;
  14AA : 5ECD;
  14AB : 566D;
  14AC : 566D;
  14AD : 566D;
  14AE : 56AD;
  14AF : 56CD;
  14B0 : 56CD;
  14B1 : 56CD;
  14B2 : 56AD;
  14B3 : 56AD;
  14B4 : 56AD;
  14B5 : 56AE;
  14B6 : 568D;
  14B7 : 566D;
  14B8 : 566D;
  14B9 : 56AD;
  14BA : 5ECE;
  14BB : 5ECE;
  14BC : 5ECE;
  14BD : 5EEE;
  14BE : 672E;
  14BF : 672E;
  14C0 : 5EEE;
  14C1 : 5EEE;
  14C2 : 5EEE;
  14C3 : 5EED;
  14C4 : 5EED;
  14C5 : 5EED;
  14C6 : 5ECE;
  14C7 : 56AD;
  14C8 : 4E4C;
  14C9 : 564C;
  14CA : 4E4C;
  14CB : 56AD;
  14CC : 5EEE;
  14CD : 5EEE;
  14CE : 5F0E;
  14CF : 5F0E;
  14D0 : 5F0E;
  14D1 : 5F0D;
  14D2 : 5F0D;
  14D3 : 5F0D;
  14D4 : 5F0D;
  14D5 : 5F0D;
  14D6 : 5F0D;
  14D7 : 5F0D;
  14D8 : 5F0D;
  14D9 : 5EED;
  14DA : 568D;
  14DB : 4E4C;
  14DC : 4E6C;
  14DD : 566D;
  14DE : 5EED;
  14DF : 5EED;
  14E0 : 5F0E;
  14E1 : 5F0D;
  14E2 : 5F0D;
  14E3 : 5EED;
  14E4 : 5EED;
  14E5 : 5EEE;
  14E6 : 5ECE;
  14E7 : 564D;
  14E8 : 564D;
  14E9 : 5ECD;
  14EA : 5EAD;
  14EB : 564D;
  14EC : 4E4D;
  14ED : 4E4D;
  14EE : 56AD;
  14EF : 5F0E;
  14F0 : 5F0E;
  14F1 : 5EEE;
  14F2 : 5F0E;
  14F3 : 5EEE;
  14F4 : 5EED;
  14F5 : 5ECE;
  14F6 : 564D;
  14F7 : 4E4C;
  14F8 : 4E4C;
  14F9 : 568D;
  14FA : 5F0E;
  14FB : 5F0E;
  14FC : 5EEE;
  14FD : 5F0E;
  14FE : 672E;
  14FF : 672E;
  1500 : 568E;
  1501 : 568E;
  1502 : 568D;
  1503 : 56AD;
  1504 : 5EED;
  1505 : 5ECD;
  1506 : 568D;
  1507 : 568D;
  1508 : 56AC;
  1509 : 56AD;
  150A : 56AD;
  150B : 5ECD;
  150C : 5EED;
  150D : 5EEE;
  150E : 5F0E;
  150F : 5F0E;
  1510 : 5F0E;
  1511 : 5F0D;
  1512 : 5F0E;
  1513 : 5F0D;
  1514 : 5F0D;
  1515 : 5F0D;
  1516 : 5F0D;
  1517 : 5F0D;
  1518 : 5F0D;
  1519 : 5EEE;
  151A : 56CD;
  151B : 56AD;
  151C : 56AD;
  151D : 56AD;
  151E : 568D;
  151F : 56AD;
  1520 : 5EEE;
  1521 : 5EED;
  1522 : 5F0D;
  1523 : 5EED;
  1524 : 5EEE;
  1525 : 56AD;
  1526 : 566D;
  1527 : 564D;
  1528 : 564D;
  1529 : 568D;
  152A : 566D;
  152B : 564D;
  152C : 566D;
  152D : 56AD;
  152E : 56CD;
  152F : 5EEE;
  1530 : 5EEE;
  1531 : 5EEE;
  1532 : 5EEE;
  1533 : 5EEE;
  1534 : 568D;
  1535 : 568D;
  1536 : 56AD;
  1537 : 56AD;
  1538 : 56AD;
  1539 : 56CD;
  153A : 5EEE;
  153B : 5EEE;
  153C : 5EED;
  153D : 5F0D;
  153E : 5F2E;
  153F : 5F2E;
  1540 : 566D;
  1541 : 566D;
  1542 : 4E6D;
  1543 : 4E6C;
  1544 : 5EED;
  1545 : 5ECD;
  1546 : 564D;
  1547 : 566D;
  1548 : 56ED;
  1549 : 5ECD;
  154A : 5ECD;
  154B : 5EED;
  154C : 5EED;
  154D : 5F0D;
  154E : 5F0D;
  154F : 5F0D;
  1550 : 5F0D;
  1551 : 5F0D;
  1552 : 5F0E;
  1553 : 5F0E;
  1554 : 5F0D;
  1555 : 5F0D;
  1556 : 5F0D;
  1557 : 5F0D;
  1558 : 5F0D;
  1559 : 5F0D;
  155A : 5EED;
  155B : 5EED;
  155C : 5EED;
  155D : 5ECD;
  155E : 564D;
  155F : 568D;
  1560 : 5EED;
  1561 : 5EED;
  1562 : 5EED;
  1563 : 5EED;
  1564 : 5EEE;
  1565 : 568D;
  1566 : 564D;
  1567 : 564C;
  1568 : 564C;
  1569 : 564D;
  156A : 564D;
  156B : 4E4C;
  156C : 568D;
  156D : 5EED;
  156E : 5EED;
  156F : 5EEE;
  1570 : 5EED;
  1571 : 5EEE;
  1572 : 5EEE;
  1573 : 5ECE;
  1574 : 566D;
  1575 : 566D;
  1576 : 5ECE;
  1577 : 5EED;
  1578 : 5EED;
  1579 : 5EED;
  157A : 5EED;
  157B : 5F0D;
  157C : 5F0D;
  157D : 5F0D;
  157E : 5F0E;
  157F : 5F2E;
  1580 : 566D;
  1581 : 566D;
  1582 : 568D;
  1583 : 568D;
  1584 : 56CD;
  1585 : 568D;
  1586 : 562C;
  1587 : 566D;
  1588 : 5EED;
  1589 : 5EED;
  158A : 5EED;
  158B : 5EED;
  158C : 5EED;
  158D : 5F0D;
  158E : 5F0D;
  158F : 5F0D;
  1590 : 5F0D;
  1591 : 5F0D;
  1592 : 5F0E;
  1593 : 5F0E;
  1594 : 5F0D;
  1595 : 5F0D;
  1596 : 5F0E;
  1597 : 5F0D;
  1598 : 5F0D;
  1599 : 5F0D;
  159A : 5EED;
  159B : 5EEE;
  159C : 5F0D;
  159D : 5ECE;
  159E : 564D;
  159F : 566D;
  15A0 : 5EED;
  15A1 : 5ECD;
  15A2 : 5ECD;
  15A3 : 5ECD;
  15A4 : 56CD;
  15A5 : 568D;
  15A6 : 566D;
  15A7 : 568D;
  15A8 : 568C;
  15A9 : 566D;
  15AA : 566D;
  15AB : 566D;
  15AC : 568D;
  15AD : 5EAE;
  15AE : 5ECE;
  15AF : 56CD;
  15B0 : 5EED;
  15B1 : 5EEE;
  15B2 : 5EEE;
  15B3 : 5ECE;
  15B4 : 564D;
  15B5 : 566C;
  15B6 : 5EEE;
  15B7 : 5EED;
  15B8 : 5EED;
  15B9 : 5F0D;
  15BA : 5F0D;
  15BB : 5F0D;
  15BC : 5F0E;
  15BD : 5F0D;
  15BE : 5F0E;
  15BF : 5F2E;
  15C0 : 5ECD;
  15C1 : 5ECD;
  15C2 : 56CD;
  15C3 : 5ECD;
  15C4 : 568D;
  15C5 : 564D;
  15C6 : 564D;
  15C7 : 566D;
  15C8 : 5EED;
  15C9 : 5EED;
  15CA : 5EED;
  15CB : 5EED;
  15CC : 5F0D;
  15CD : 5F0D;
  15CE : 5F0D;
  15CF : 5F0E;
  15D0 : 5F0D;
  15D1 : 5F0E;
  15D2 : 5F2E;
  15D3 : 5F2E;
  15D4 : 5F2E;
  15D5 : 5F0E;
  15D6 : 5F2E;
  15D7 : 5F2E;
  15D8 : 5F0D;
  15D9 : 5F0D;
  15DA : 5EED;
  15DB : 5EED;
  15DC : 5EEE;
  15DD : 56CE;
  15DE : 564D;
  15DF : 566D;
  15E0 : 5EED;
  15E1 : 56AD;
  15E2 : 566D;
  15E3 : 566D;
  15E4 : 566C;
  15E5 : 56AD;
  15E6 : 5ECD;
  15E7 : 5ECD;
  15E8 : 56CD;
  15E9 : 56CD;
  15EA : 56CD;
  15EB : 5ECD;
  15EC : 56AD;
  15ED : 566D;
  15EE : 566D;
  15EF : 566C;
  15F0 : 56CD;
  15F1 : 5EEE;
[...]
  1ACC : 9F4B;
  1ACD : 9F4B;
  1ACE : 9F2B;
  1ACF : 9F2B;
  1AD0 : 9F4B;
  1AD1 : 9F2B;
  1AD2 : 9F0A;
  1AD3 : 7E47;
  1AD4 : 75E5;
  1AD5 : 75E5;
  1AD6 : 75E5;
  1AD7 : 75E5;
  1AD8 : 75E5;
  1AD9 : 75E5;
  1ADA : 7E26;
  1ADB : 8EC9;
  1ADC : 9F4B;
  1ADD : 9F4B;
  1ADE : 9F2B;
  1ADF : 9F2B;
  1AE0 : 9F4B;
  1AE1 : 9F2B;
  1AE2 : 9F2A;
  1AE3 : 8667;
  1AE4 : 75E5;
  1AE5 : 75E5;
  1AE6 : 75E5;
  1AE7 : 75E5;
  1AE8 : 75E5;
  1AE9 : 75E5;
  1AEA : 7E06;
  1AEB : 8EA8;
  1AEC : 9F2B;
  1AED : 9F4B;
  1AEE : 9F2B;
  1AEF : 9F2B;
  1AF0 : 9F4B;
  1AF1 : 9F2B;
  1AF2 : 9F2A;
  1AF3 : 8667;
  1AF4 : 75E5;
  1AF5 : 75E5;
  1AF6 : 75E5;
  1AF7 : 75E5;
  1AF8 : 75E5;
  1AF9 : 75E5;
  1AFA : 7606;
  1AFB : 8EA8;
  1AFC : 9F2A;
  1AFD : 9F4B;
  1AFE : 9F2B;
  1AFF : 9F2B;
  1B00 : 9F2B;
  1B01 : 8EC9;
  1B02 : 7E26;
  1B03 : 75E5;
  1B04 : 75E5;
  1B05 : 7605;
  1B06 : 7605;
  1B07 : 75E5;
  1B08 : 75E5;
  1B09 : 7E47;
  1B0A : 970A;
  1B0B : 9F2B;
  1B0C : 9F4B;
  1B0D : 9F2B;
  1B0E : 9F2B;
  1B0F : 9F4B;
  1B10 : 9F4B;
  1B11 : 8EC9;
  1B12 : 7E46;
  1B13 : 75E5;
  1B14 : 75E5;
  1B15 : 7605;
  1B16 : 7605;
  1B17 : 75E5;
  1B18 : 75E5;
  1B19 : 7E47;
  1B1A : 96EA;
  1B1B : 9F2B;
  1B1C : 9F4B;
  1B1D : 9F2B;
  1B1E : 9F2B;
  1B1F : 9F4B;
  1B20 : 9F4B;
  1B21 : 96C9;
  1B22 : 7E46;
  1B23 : 75E5;
  1B24 : 75E5;
  1B25 : 7605;
  1B26 : 7605;
  1B27 : 75E5;
  1B28 : 75E5;
  1B29 : 7E47;
  1B2A : 96E9;
  1B2B : 9F2A;
  1B2C : 9F4B;
  1B2D : 9F2B;
  1B2E : 9F2B;
  1B2F : 9F4B;
  1B30 : 9F4B;
  1B31 : 96E9;
  1B32 : 7E47;
  1B33 : 75E5;
  1B34 : 75E5;
  1B35 : 7605;
  1B36 : 7605;
  1B37 : 75E5;
  1B38 : 75E5;
  1B39 : 7E26;
  1B3A : 96E9;
  1B3B : 9F2A;
  1B3C : 9F4B;
  1B3D : 9F2B;
  1B3E : 9F2B;
  1B3F : 9F4B;
  1B40 : 8EC8;
  1B41 : 7E46;
  1B42 : 7625;
  1B43 : 7625;
  1B44 : 7625;
  1B45 : 7625;
  1B46 : 7625;
  1B47 : 7E46;
  1B48 : 8EC8;
  1B49 : 9F4A;
  1B4A : A76B;
  1B4B : A78B;
  1B4C : A78B;
  1B4D : A78B;
  1B4E : A76B;
  1B4F : 9F4A;
  1B50 : 8EC8;
  1B51 : 7E66;
  1B52 : 7605;
  1B53 : 7625;
  1B54 : 7625;
  1B55 : 7625;
  1B56 : 7625;
  1B57 : 7E46;
  1B58 : 86A8;
  1B59 : 9F2A;
  1B5A : 9F6B;
  1B5B : A78B;
  1B5C : A78B;
  1B5D : A78B;
  1B5E : A76B;
  1B5F : 9F4A;
  1B60 : 8EE8;
  1B61 : 7E66;
  1B62 : 7625;
  1B63 : 7625;
  1B64 : 7625;
  1B65 : 7625;
  1B66 : 7625;
  1B67 : 7E46;
  1B68 : 86A8;
  1B69 : 972A;
  1B6A : 9F6B;
  1B6B : A78B;
  1B6C : A78B;
  1B6D : A78B;
  1B6E : A78B;
  1B6F : 9F4A;
  1B70 : 8EE9;
  1B71 : 7E66;
  1B72 : 7625;
  1B73 : 7625;
  1B74 : 7625;
  1B75 : 7625;
  1B76 : 7625;
  1B77 : 7E46;
  1B78 : 8687;
  1B79 : 972A;
  1B7A : 9F6B;
  1B7B : A78B;
  1B7C : A78B;
  1B7D : A78B;
  1B7E : A78B;
  1B7F : 9F6A;
  1B80 : 6DC5;
  1B81 : 6DA5;
  1B82 : 6DA5;
  1B83 : 6DC5;
  1B84 : 6DC5;
  1B85 : 6DA5;
  1B86 : 6DC5;
  1B87 : 7E27;
  1B88 : 8EA9;
  1B89 : 96EA;
  1B8A : 8ECA;
  1B8B : 8EEA;
  1B8C : 8EEA;
  1B8D : 96EA;
  1B8E : 8ECA;
  1B8F : 7E68;
  1B90 : 6DE5;
  1B91 : 6DA5;
  1B92 : 6DA5;
  1B93 : 6DC5;
  1B94 : 6DC5;
  1B95 : 6DA5;
  1B96 : 6DA5;
  1B97 : 7E27;
  1B98 : 86A9;
  1B99 : 96EA;
  1B9A : 8ECA;
  1B9B : 8EEA;
  1B9C : 8EEA;
  1B9D : 96EA;
  1B9E : 8ECA;
  1B9F : 8668;
  1BA0 : 75E6;
  1BA1 : 6DA5;
  1BA2 : 6DA5;
  1BA3 : 6DC5;
  1BA4 : 6DC5;
  1BA5 : 6DA5;
  1BA6 : 6DA5;
  1BA7 : 7627;
  1BA8 : 8689;
  1BA9 : 96EA;
  1BAA : 8ECA;
  1BAB : 8EEA;
  1BAC : 8EEA;
  1BAD : 96EA;
  1BAE : 8EEA;
  1BAF : 8668;
  1BB0 : 75E6;
  1BB1 : 6DA5;
  1BB2 : 6DA5;
  1BB3 : 6DC5;
  1BB4 : 6DC5;
  1BB5 : 6DA5;
  1BB6 : 6DA5;
  1BB7 : 7607;
  1BB8 : 8689;
  1BB9 : 96EA;
  1BBA : 8ECA;
  1BBB : 8EEA;
  1BBC : 8EEA;
  1BBD : 96EA;
  1BBE : 8EEA;
  1BBF : 8688;
  1BC0 : 64C4;
  1BC1 : 64E5;
  1BC2 : 64E5;
  1BC3 : 64E5;
  1BC4 : 64E5;
  1BC5 : 64C5;
  1BC6 : 64E5;
  1BC7 : 7567;
  1BC8 : 7D67;
  1BC9 : 7D67;
  1BCA : 7D67;
  1BCB : 7D67;
  1BCC : 7D67;
  1BCD : 7D67;
  1BCE : 7567;
  1BCF : 64E5;
  1BD0 : 64C4;
  1BD1 : 64E5;
  1BD2 : 64E5;
  1BD3 : 64E5;
  1BD4 : 64E5;
  1BD5 : 64C5;
  1BD6 : 64C5;
  1BD7 : 7547;
  1BD8 : 7D87;
  1BD9 : 7D67;
  1BDA : 7D67;
  1BDB : 7D67;
  1BDC : 7D67;
  1BDD : 7D67;
  1BDE : 7D67;
  1BDF : 6CE5;
  1BE0 : 64A4;
  1BE1 : 64C5;
  1BE2 : 64E5;
  1BE3 : 64E5;
  1BE4 : 64E5;
  1BE5 : 64C5;
  1BE6 : 64C4;
  1BE7 : 7546;
  1BE8 : 7D87;
  1BE9 : 7D67;
  1BEA : 7D67;
  1BEB : 7D67;
  1BEC : 7D67;
  1BED : 7D67;
  1BEE : 7D67;
  1BEF : 6D05;
  1BF0 : 64A4;
  1BF1 : 64C5;
  1BF2 : 64E5;
  1BF3 : 64E5;
  1BF4 : 64E5;
  1BF5 : 64C5;
  1BF6 : 64C4;
  1BF7 : 7546;
  1BF8 : 7D87;
  1BF9 : 7D67;
  1BFA : 7D67;
  1BFB : 7D67;
  1BFC : 7D67;
  1BFD : 7D67;
  1BFE : 7D67;
  1BFF : 6D05;
  1C00 : 9C86;
  1C01 : 9C86;
  1C02 : 9C86;
  1C03 : 9C86;
  1C04 : 9C86;
  1C05 : 9C86;
  1C06 : 9C86;
  1C07 : A486;
  1C08 : 9C86;
  1C09 : A486;
  1C0A : A486;
  1C0B : A486;
  1C0C : A486;
  1C0D : 9C86;
  1C0E : 9C86;
  1C0F : 9C86;
  1C10 : 9C86;
  1C11 : 9C86;
  1C12 : 9C86;
  1C13 : 9C86;
  1C14 : 9C86;
  1C15 : 9C86;
  1C16 : 9C86;
  1C17 : A486;
  1C18 : 9C86;
  1C19 : A486;
  1C1A : A486;
  1C1B : A486;
  1C1C : A486;
  1C1D : A486;
  1C1E : 9C86;
  1C1F : 9C86;
  1C20 : 9C86;
  1C21 : 9C86;
  1C22 : 9C86;
  1C23 : 9C86;
  1C24 : 9C86;
  1C25 : 9C86;
  1C26 : 9C86;
  1C27 : A486;
  1C28 : 9C86;
  1C29 : A486;
  1C2A : A486;
  1C2B : A486;
  1C2C : A486;
  1C2D : A486;
  1C2E : 9C86;
  1C2F : 9C86;
  1C30 : 9C86;
  1C31 : 9C86;
  1C32 : 9C86;
  1C33 : 9C86;
  1C34 : 9C86;
  1C35 : 9C86;
  1C36 : 9C86;
  1C37 : A486;
  1C38 : 9C86;
  1C39 : A486;
  1C3A : A486;
  1C3B : A486;
  1C3C : A486;
  1C3D : A486;
  1C3E : 9C86;
  1C3F : 9C86;
  1C40 : D5CD;
  1C41 : D5CD;
  1C42 : D5CD;
  1C43 : D5CD;
  1C44 : D5CD;
  1C45 : D5CD;
  1C46 : D5CD;
  1C47 : CDCD;
  1C48 : CDCD;
  1C49 : CDCD;
  1C4A : CDCD;
  1C4B : CDCD;
  1C4C : CDCD;
  1C4D : CDCD;
  1C4E : CDCD;
  1C4F : D5CD;
  1C50 : D5CD;
  1C51 : D5CD;
  1C52 : D5CD;
  1C53 : D5CD;
  1C54 : D5CD;
  1C55 : D5CD;
  1C56 : D5CD;
  1C57 : CDCD;
  1C58 : CDCD;
  1C59 : CDCD;
  1C5A : CDCD;
  1C5B : CDCD;
  1C5C : CDCD;
  1C5D : CDCD;
  1C5E : CDCD;
  1C5F : D5CD;
  1C60 : D5CD;
  1C61 : D5CD;
  1C62 : D5CD;
  1C63 : D5CD;
  1C64 : D5CD;
  1C65 : D5CD;
  1C66 : D5CD;
  1C67 : D5CD;
  1C68 : CDCD;
  1C69 : CDCD;
  1C6A : CDCD;
  1C6B : CDCD;
  1C6C : CDCD;
  1C6D : CDCD;
  1C6E : CDCD;
  1C6F : D5CD;
  1C70 : D5CD;
  1C71 : D5CD;
  1C72 : D5CD;
  1C73 : D5CD;
  1C74 : D5CD;
  1C75 : D5CD;
  1C76 : D5CD;
  1C77 : D5CD;
  1C78 : CDCD;
  1C79 : CDCD;
  1C7A : CDCD;
  1C7B : CDCD;
  1C7C : CDCD;
  1C7D : CDCD;
  1C7E : CDCD;
  1C7F : D5CD;
  1C80 : E6D2;
  1C81 : E6D2;
  1C82 : E6D2;
  1C83 : E6D2;
  1C84 : E6D2;
  1C85 : E6D2;
  1C86 : E6D2;
  1C87 : E6D2;
  1C88 : E6D2;
  1C89 : E6D2;
  1C8A : E6D2;
  1C8B : E6D2;
  1C8C : E6D2;
  1C8D : E6D2;
  1C8E : E6D2;
  1C8F : E6D2;
  1C90 : E6D2;
  1C91 : E6D2;
  1C92 : E6D2;
  1C93 : E6D2;
  1C94 : E6D2;
  1C95 : E6D2;
  1C96 : E6D2;
  1C97 : E6D2;
  1C98 : E6D2;
  1C99 : E6D2;
  1C9A : E6D2;
  1C9B : E6D2;
  1C9C : E6D2;
  1C9D : E6D2;
  1C9E : E6D2;
  1C9F : E6D2;
  1CA0 : E6D2;
  1CA1 : E6D2;
  1CA2 : E6D2;
  1CA3 : E6D2;
  1CA4 : E6D2;
  1CA5 : E6D2;
  1CA6 : E6D2;
  1CA7 : E6D2;
  1CA8 : E6D2;
  1CA9 : E6D2;
  1CAA : E6D2;
  1CAB : E6D2;
  1CAC : E6D2;
  1CAD : E6D2;
  1CAE : E6D2;
  1CAF : E6D2;
  1CB0 : E6D2;
  1CB1 : E6D2;
  1CB2 : E6D2;
  1CB3 : E6D2;
  1CB4 : E6D2;
  1CB5 : E6D2;
  1CB6 : E6D2;
  1CB7 : E6D2;
  1CB8 : E6D2;
  1CB9 : E6D2;
  1CBA : E6D2;
  1CBB : E6D2;
  1CBC : E6D2;
  1CBD : E6D2;
  1CBE : E6D2;
  1CBF : E6D2;
  1CC0 : DED2;
  1CC1 : DED2;
  1CC2 : DED2;
  1CC3 : DED2;
  1CC4 : DED2;
  1CC5 : DED2;
  1CC6 : DED2;
  1CC7 : DED2;
  1CC8 : DED2;
  1CC9 : DED2;
  1CCA : DED2;
  1CCB : DED2;
  1CCC : DED2;
  1CCD : DED2;
  1CCE : DED2;
  1CCF : DED2;
  1CD0 : DED2;
  1CD1 : DED2;
  1CD2 : DED2;
  1CD3 : DED2;
  1CD4 : DED2;
  1CD5 : DED2;
  1CD6 : DED2;
  1CD7 : DED2;
  1CD8 : DED2;
  1CD9 : DED2;
  1CDA : DED2;
  1CDB : DED2;
  1CDC : DED2;
  1CDD : DED2;
  1CDE : DED2;
  1CDF : DED2;
  1CE0 : DED2;
  1CE1 : DED2;
  1CE2 : DED2;
  1CE3 : DED2;
  1CE4 : DED2;
  1CE5 : DED2;
  1CE6 : DED2;
  1CE7 : DED2;
  1CE8 : DED2;
  1CE9 : DED2;
  1CEA : DED2;
  1CEB : DED2;
  1CEC : DED2;
  1CED : DED2;
  1CEE : DED2;
  1CEF : DED2;
  1CF0 : DED2;
  1CF1 : DED2;
  1CF2 : DED2;
  1CF3 : DED2;
  1CF4 : DED2;
  1CF5 : DED2;
  1CF6 : DED2;
  1CF7 : DED2;
  1CF8 : DED2;
  1CF9 : DED2;
  1CFA : DED2;
  1CFB : DED2;
  1CFC : DED2;
  1CFD : DED2;
  1CFE : DED2;
  1CFF : DED2;
  1D00 : DED2;
  1D01 : DED2;
  1D02 : DED2;
  1D03 : DED2;
  1D04 : DED2;
  1D05 : DED2;
  1D06 : DED2;
  1D07 : DED2;
  1D08 : DED2;
  1D09 : DED2;
  1D0A : DED2;
  1D0B : DED2;
  1D0C : DED2;
  1D0D : DED2;
  1D0E : DED2;
  1D0F : DED2;
  1D10 : DED2;
  1D11 : DED2;
  1D12 : DED2;
  1D13 : DED2;
  1D14 : DED2;
  1D15 : DED2;
  1D16 : DED2;
  1D17 : DED2;
  1D18 : DED2;
  1D19 : DED2;
  1D1A : DED2;
  1D1B : DED2;
  1D1C : DED2;
  1D1D : DED2;
  1D1E : DED2;
  1D1F : DED2;
  1D20 : DED2;
  1D21 : DED2;
  1D22 : DED2;
  1D23 : DED2;
  1D24 : DED2;
  1D25 : DED2;
  1D26 : DED2;
  1D27 : DED2;
  1D28 : DED2;
  1D29 : DED2;
  1D2A : DED2;
  1D2B : DED2;
  1D2C : DED2;
  1D2D : DED2;
  1D2E : DED2;
  1D2F : DED2;
  1D30 : DED2;
  1D31 : DED2;
  1D32 : DED2;
  1D33 : DED2;
  1D34 : DED2;
  1D35 : DED2;
  1D36 : DED2;
  1D37 : DED2;
  1D38 : DED2;
  1D39 : DED2;
  1D3A : DED2;
  1D3B : DED2;
  1D3C : DED2;
  1D3D : DED2;
  1D3E : DED2;
  1D3F : DED2;
  1D40 : DED2;
  1D41 : DED2;
  1D42 : DED2;
  1D43 : DED2;
  1D44 : DED2;
  1D45 : DED2;
  1D46 : DED2;
  1D47 : DED2;
  1D48 : DED2;
  1D49 : DED2;
  1D4A : DED2;
  1D4B : DED2;
  1D4C : DED2;
  1D4D : DED2;
  1D4E : DED2;
  1D4F : DED2;
  1D50 : DED2;
  1D51 : DED2;
  1D52 : DED2;
  1D53 : DED2;
  1D54 : DED2;
  1D55 : DED2;
  1D56 : DED2;
  1D57 : DED2;
  1D58 : DED2;
  1D59 : DED2;
  1D5A : DED2;
  1D5B : DED2;
  1D5C : DED2;
  1D5D : DED2;
  1D5E : DED2;
  1D5F : DED2;
  1D60 : DED2;
  1D61 : DED2;
  1D62 : DED2;
  1D63 : DED2;
  1D64 : DED2;
  1D65 : DED2;
  1D66 : DED2;
  1D67 : DED2;
  1D68 : DED2;
  1D69 : DED2;
  1D6A : DED2;
  1D6B : DED2;
  1D6C : DED2;
  1D6D : DED2;
  1D6E : DED2;
  1D6F : DED2;
  1D70 : DED2;
  1D71 : DED2;
  1D72 : DED2;
  1D73 : DED2;
  1D74 : DED2;
  1D75 : DED2;
  1D76 : DED2;
  1D77 : DED2;
  1D78 : DED2;
  1D79 : DED2;
  1D7A : DED2;
  1D7B : DED2;
  1D7C : DED2;
  1D7D : DED2;
  1D7E : DED2;
  1D7F : DED2;
  1D80 : DED2;
  1D81 : DED2;
  1D82 : DED2;
  1D83 : DED2;
  1D84 : DED2;
  1D85 : DED2;
  1D86 : DED2;
  1D87 : DED2;
  1D88 : DED2;
  1D89 : DED2;
  1D8A : DED2;
  1D8B : DED2;
  1D8C : DED2;
  1D8D : DED2;
  1D8E : DED2;
  1D8F : DED2;
  1D90 : DED2;
  1D91 : DED2;
  1D92 : DED2;
  1D93 : DED2;
  1D94 : DED2;
  1D95 : DED2;
  1D96 : DED2;
  1D97 : DED2;
  1D98 : DED2;
  1D99 : DED2;
  1D9A : DED2;
  1D9B : DED2;
  1D9C : DED2;
  1D9D : DED2;
  1D9E : DED2;
  1D9F : DED2;
  1DA0 : DED2;
  1DA1 : DED2;
  1DA2 : DED2;
  1DA3 : DED2;
  1DA4 : DED2;
  1DA5 : DED2;
  1DA6 : DED2;
  1DA7 : DED2;
  1DA8 : DED2;
  1DA9 : DED2;
  1DAA : DED2;
  1DAB : DED2;
  1DAC : DED2;
  1DAD : DED2;
  1DAE : DED2;
  1DAF : DED2;
  1DB0 : DED2;
  1DB1 : DED2;
  1DB2 : DED2;
  1DB3 : DED2;
  1DB4 : DED2;
  1DB5 : DED2;
  1DB6 : DED2;
  1DB7 : DED2;
  1DB8 : DED2;
  1DB9 : DED2;
  1DBA : DED2;
  1DBB : DED2;
  1DBC : DED2;
  1DBD : DED2;
  1DBE : DED2;
  1DBF : DED2;
  1DC0 : DED2;
  1DC1 : DED2;
  1DC2 : DED2;
  1DC3 : DED2;
  1DC4 : DED2;
  1DC5 : DED2;
  1DC6 : DED2;
  1DC7 : DED2;
  1DC8 : DED2;
  1DC9 : DED2;
  1DCA : DED2;
  1DCB : DED2;
  1DCC : DED2;
  1DCD : DED2;
  1DCE : DED2;
  1DCF : DED2;
  1DD0 : DED2;
  1DD1 : DED2;
  1DD2 : DED2;
  1DD3 : DED2;
  1DD4 : DED2;
  1DD5 : DED2;
  1DD6 : DED2;
  1DD7 : DED2;
  1DD8 : DED2;
  1DD9 : DED2;
  1DDA : DED2;
  1DDB : DED2;
  1DDC : DED2;
  1DDD : DED2;
  1DDE : DED2;
  1DDF : DED2;
  1DE0 : DED2;
  1DE1 : DED2;
  1DE2 : DED2;
  1DE3 : DED2;
  1DE4 : DED2;
  1DE5 : DED2;
  1DE6 : DED2;
  1DE7 : DED2;
  1DE8 : DED2;
  1DE9 : DED2;
  1DEA : DED2;
  1DEB : DED2;
  1DEC : DED2;
  1DED : DED2;
  1DEE : DED2;
  1DEF : DED2;
  1DF0 : DED2;
  1DF1 : DED2;
  1DF2 : DED2;
  1DF3 : DED2;
  1DF4 : DED2;
  1DF5 : DED2;
  1DF6 : DED2;
  1DF7 : DED2;
  1DF8 : DED2;
  1DF9 : DED2;
  1DFA : DED2;
  1DFB : DED2;
  1DFC : DED2;
  1DFD : DED2;
  1DFE : DED2;
  1DFF : DED2;
  1E00 : DED2;
  1E01 : DED2;
  1E02 : DED2;
  1E03 : DED2;
  1E04 : DED2;
  1E05 : DED2;
  1E06 : DED2;
  1E07 : DED2;
  1E08 : DED2;
  1E09 : DED2;
  1E0A : DED2;
  1E0B : DED2;
  1E0C : DED2;
  1E0D : DED2;
  1E0E : DED2;
  1E0F : DED2;
  1E10 : DED2;
  1E11 : DED2;
  1E12 : DED2;
  1E13 : DED2;
  1E14 : DED2;
  1E15 : DED2;
  1E16 : DED2;
  1E17 : DED2;
  1E18 : DED2;
  1E19 : DED2;
  1E1A : DED2;
  1E1B : DED2;
  1E1C : DED2;
  1E1D : DED2;
  1E1E : DED2;
  1E1F : DED2;
  1E20 : DED2;
  1E21 : DED2;
  1E22 : DED2;
  1E23 : DED2;
  1E24 : DED2;
  1E25 : DED2;
  1E26 : DED2;
  1E27 : DED2;
  1E28 : DED2;
  1E29 : DED2;
  1E2A : DED2;
  1E2B : DED2;
  1E2C : DED2;
  1E2D : DED2;
  1E2E : DED2;
  1E2F : DED2;
  1E30 : DED2;
  1E31 : DED2;
  1E32 : DED2;
  1E33 : DED2;
  1E34 : DED2;
  1E35 : DED2;
  1E36 : DED2;
  1E37 : DED2;
  1E38 : DED2;
  1E39 : DED2;
  1E3A : DED2;
  1E3B : DED2;
  1E3C : DED2;
  1E3D : DED2;
  1E3E : DED2;
  1E3F : DED2;
  1E40 : DED2;
  1E41 : DED2;
  1E42 : DED2;
  1E43 : DED2;
  1E44 : DED2;
  1E45 : DED2;
  1E46 : DED2;
  1E47 : DED2;
  1E48 : DED2;
  1E49 : DED2;
  1E4A : DED2;
  1E4B : DED2;
  1E4C : DED2;
  1E4D : DED2;
  1E4E : DED2;
  1E4F : DED2;
  1E50 : DED2;
  1E51 : DED2;
  1E52 : DED2;
  1E53 : DED2;
  1E54 : DED2;
  1E55 : DED2;
  1E56 : DED2;
  1E57 : DED2;
  1E58 : DED2;
  1E59 : DED2;
  1E5A : DED2;
  1E5B : DED2;
  1E5C : DED2;
  1E5D : DED2;
  1E5E : DED2;
  1E5F : DED2;
  1E60 : DED2;
  1E61 : DED2;
  1E62 : DED2;
  1E63 : DED2;
  1E64 : DED2;
  1E65 : DED2;
  1E66 : DED2;
  1E67 : DED2;
  1E68 : DED2;
  1E69 : DED2;
  1E6A : DED2;
  1E6B : DED2;
  1E6C : DED2;
  1E6D : DED2;
  1E6E : DED2;
  1E6F : DED2;
  1E70 : DED2;
  1E71 : DED2;
  1E72 : DED2;
  1E73 : DED2;
  1E74 : DED2;
  1E75 : DED2;
  1E76 : DED2;
  1E77 : DED2;
  1E78 : DED2;
  1E79 : DED2;
  1E7A : DED2;
  1E7B : DED2;
  1E7C : DED2;
  1E7D : DED2;
  1E7E : DED2;
  1E7F : DED2;
  1E80 : DED2;
  1E81 : DED2;
  1E82 : DED2;
  1E83 : DED2;
  1E84 : DED2;
  1E85 : DED2;
  1E86 : DED2;
  1E87 : DED2;
  1E88 : DED2;
  1E89 : DED2;
  1E8A : DED2;
  1E8B : DED2;
  1E8C : DED2;
  1E8D : DED2;
  1E8E : DED2;
  1E8F : DED2;
  1E90 : DED2;
  1E91 : DED2;
  1E92 : DED2;
  1E93 : DED2;
  1E94 : DED2;
  1E95 : DED2;
  1E96 : DED2;
  1E97 : DED2;
  1E98 : DED2;
  1E99 : DED2;
  1E9A : DED2;
  1E9B : DED2;
  1E9C : DED2;
  1E9D : DED2;
  1E9E : DED2;
  1E9F : DED2;
  1EA0 : DED2;
  1EA1 : DED2;
  1EA2 : DED2;
  1EA3 : DED2;
  1EA4 : DED2;
  1EA5 : DED2;
  1EA6 : DED2;
  1EA7 : DED2;
  1EA8 : DED2;
  1EA9 : DED2;
  1EAA : DED2;
  1EAB : DED2;
  1EAC : DED2;
  1EAD : DED2;
  1EAE : DED2;
  1EAF : DED2;
  1EB0 : DED2;
  1EB1 : DED2;
  1EB2 : DED2;
  1EB3 : DED2;
  1EB4 : DED2;
  1EB5 : DED2;
  1EB6 : DED2;
  1EB7 : DED2;
  1EB8 : DED2;
  1EB9 : DED2;
  1EBA : DED2;
  1EBB : DED2;
  1EBC : DED2;
  1EBD : DED2;
  1EBE : DED2;
  1EBF : DED2;
  1EC0 : DED2;
  1EC1 : DED2;
  1EC2 : DED2;
  1EC3 : DED2;
  1EC4 : DED2;
  1EC5 : DED2;
  1EC6 : DED2;
  1EC7 : DED2;
  1EC8 : DED2;
  1EC9 : DED2;
  1ECA : DED2;
  1ECB : DED2;
  1ECC : DED2;
  1ECD : DED2;
  1ECE : DED2;
  1ECF : DED2;
  1ED0 : DED2;
  1ED1 : DED2;
  1ED2 : DED2;
  1ED3 : DED2;
  1ED4 : DED2;
  1ED5 : DED2;
  1ED6 : DED2;
  1ED7 : DED2;
  1ED8 : DED2;
  1ED9 : DED2;
  1EDA : DED2;
  1EDB : DED2;
  1EDC : DED2;
  1EDD : DED2;
  1EDE : DED2;
  1EDF : DED2;
  1EE0 : DED2;
  1EE1 : DED2;
  1EE2 : DED2;
  1EE3 : DED2;
  1EE4 : DED2;
  1EE5 : DED2;
  1EE6 : DED2;
  1EE7 : DED2;
  1EE8 : DED2;
  1EE9 : DED2;
  1EEA : DED2;
  1EEB : DED2;
  1EEC : DED2;
  1EED : DED2;
  1EEE : DED2;
  1EEF : DED2;
  1EF0 : DED2;
  1EF1 : DED2;
  1EF2 : DED2;
  1EF3 : DED2;
  1EF4 : DED2;
  1EF5 : DED2;
  1EF6 : DED2;
  1EF7 : DED2;
  1EF8 : DED2;
  1EF9 : DED2;
  1EFA : DED2;
  1EFB : DED2;
  1EFC : DED2;
  1EFD : DED2;
  1EFE : DED2;
  1EFF : DED2;
  1F00 : DED2;
  1F01 : DED2;
  1F02 : DED2;
  1F03 : DED2;
  1F04 : DED2;
  1F05 : DED2;
  1F06 : DED2;
  1F07 : DED2;
  1F08 : DED2;
  1F09 : DED2;
  1F0A : DED2;
  1F0B : DED2;
  1F0C : DED2;
  1F0D : DED2;
  1F0E : DED2;
  1F0F : DED2;
  1F10 : DED2;
  1F11 : DED2;
  1F12 : DED2;
  1F13 : DED2;
  1F14 : DED2;
  1F15 : DED2;
  1F16 : DED2;
  1F17 : DED2;
  1F18 : DED2;
  1F19 : DED2;
  1F1A : DED2;
  1F1B : DED2;
  1F1C : DED2;
  1F1D : DED2;
  1F1E : DED2;
  1F1F : DED2;
  1F20 : DED2;
  1F21 : DED2;
  1F22 : DED2;
  1F23 : DED2;
  1F24 : DED2;
  1F25 : DED2;
  1F26 : DED2;
  1F27 : DED2;
  1F28 : DED2;
  1F29 : DED2;
  1F2A : DED2;
  1F2B : DED2;
  1F2C : DED2;
  1F2D : DED2;
  1F2E : DED2;
  1F2F : DED2;
  1F30 : DED2;
  1F31 : DED2;
  1F32 : DED2;
  1F33 : DED2;
  1F34 : DED2;
  1F35 : DED2;
  1F36 : DED2;
  1F37 : DED2;
  1F38 : DED2;
  1F39 : DED2;
  1F3A : DED2;
  1F3B : DED2;
  1F3C : DED2;
  1F3D : DED2;
  1F3E : DED2;
  1F3F : DED2;
  1F40 : DED2;
  1F41 : DED2;
  1F42 : DED2;
  1F43 : DED2;
  1F44 : DED2;
  1F45 : DED2;
  1F46 : DED2;
  1F47 : DED2;
  1F48 : DED2;
  1F49 : DED2;
  1F4A : DED2;
  1F4B : DED2;
  1F4C : DED2;
  1F4D : DED2;
  1F4E : DED2;
  1F4F : DED2;
  1F50 : DED2;
  1F51 : DED2;
  1F52 : DED2;
  1F53 : DED2;
  1F54 : DED2;
  1F55 : DED2;
  1F56 : DED2;
  1F57 : DED2;
  1F58 : DED2;
  1F59 : DED2;
  1F5A : DED2;
  1F5B : DED2;
  1F5C : DED2;
  1F5D : DED2;
  1F5E : DED2;
  1F5F : DED2;
  1F60 : DED2;
  1F61 : DED2;
  1F62 : DED2;
  1F63 : DED2;
  1F64 : DED2;
  1F65 : DED2;
  1F66 : DED2;
  1F67 : DED2;
  1F68 : DED2;
  1F69 : DED2;
  1F6A : DED2;
  1F6B : DED2;
  1F6C : DED2;
  1F6D : DED2;
  1F6E : DED2;
  1F6F : DED2;
  1F70 : DED2;
  1F71 : DED2;
  1F72 : DED2;
  1F73 : DED2;
  1F74 : DED2;
  1F75 : DED2;
  1F76 : DED2;
  1F77 : DED2;
  1F78 : DED2;
  1F79 : DED2;
  1F7A : DED2;
  1F7B : DED2;
  1F7C : DED2;
  1F7D : DED2;
  1F7E : DED2;
  1F7F : DED2;
  1F80 : DED2;
  1F81 : DED2;
  1F82 : DED2;
  1F83 : DED2;
  1F84 : DED2;
  1F85 : DED2;
  1F86 : DED2;
  1F87 : DED2;
  1F88 : DED2;
  1F89 : DED2;
  1F8A : DED2;
  1F8B : DED2;
  1F8C : DED2;
  1F8D : DED2;
  1F8E : DED2;
  1F8F : DED2;
  1F90 : DED2;
  1F91 : DED2;
  1F92 : DED2;
  1F93 : DED2;
  1F94 : DED2;
  1F95 : DED2;
  1F96 : DED2;
  1F97 : DED2;
  1F98 : DED2;
  1F99 : DED2;
  1F9A : DED2;
  1F9B : DED2;
  1F9C : DED2;
  1F9D : DED2;
  1F9E : DED2;
  1F9F : DED2;
  1FA0 : DED2;
  1FA1 : DED2;
  1FA2 : DED2;
  1FA3 : DED2;
  1FA4 : DED2;
  1FA5 : DED2;
  1FA6 : DED2;
  1FA7 : DED2;
  1FA8 : DED2;
  1FA9 : DED2;
  1FAA : DED2;
  1FAB : DED2;
  1FAC : DED2;
  1FAD : DED2;
  1FAE : DED2;
  1FAF : DED2;
  1FB0 : DED2;
  1FB1 : DED2;
  1FB2 : DED2;
  1FB3 : DED2;
  1FB4 : DED2;
  1FB5 : DED2;
  1FB6 : DED2;
  1FB7 : DED2;
  1FB8 : DED2;
  1FB9 : DED2;
  1FBA : DED2;
  1FBB : DED2;
  1FBC : DED2;
  1FBD : DED2;
  1FBE : DED2;
  1FBF : DED2;
  1FC0 : DED3;
  1FC1 : DED3;
  1FC2 : DED3;
  1FC3 : DED3;
  1FC4 : DED3;
  1FC5 : DED3;
  1FC6 : DED3;
  1FC7 : DED3;
  1FC8 : DED3;
  1FC9 : DED3;
  1FCA : DED3;
  1FCB : DED3;
  1FCC : DED3;
  1FCD : DED3;
  1FCE : DED3;
  1FCF : DED3;
  1FD0 : DED3;
  1FD1 : DED3;
  1FD2 : DED3;
  1FD3 : DED3;
  1FD4 : DED3;
  1FD5 : DED3;
  1FD6 : DED3;
  1FD7 : DED3;
  1FD8 : DED3;
  1FD9 : DED3;
  1FDA : DED3;
  1FDB : DED3;
  1FDC : DED3;
  1FDD : DED3;
  1FDE : DED3;
  1FDF : DED3;
  1FE0 : DED3;
  1FE1 : DED3;
  1FE2 : DED3;
  1FE3 : DED3;
  1FE4 : DED3;
  1FE5 : DED3;
  1FE6 : DED3;
  1FE7 : DED3;
  1FE8 : DED3;
  1FE9 : DED3;
  1FEA : DED3;
  1FEB : DED3;
  1FEC : DED3;
  1FED : DED3;
  1FEE : DED3;
  1FEF : DED3;
  1FF0 : DED3;
  1FF1 : DED3;
  1FF2 : DED3;
  1FF3 : DED3;
  1FF4 : DED3;
  1FF5 : DED3;
  1FF6 : DED3;
  1FF7 : DED3;
  1FF8 : DED3;
  1FF9 : DED3;
  1FFA : DED3;
  1FFB : DED3;
  1FFC : DED3;
  1FFD : DED3;
  1FFE : DED3;
  1FFF : DED3;
END;
