DEPTH = 16384;
WIDTH = 16;

ADDRESS_RADIX = HEX;
DATA_RADIX = HEX;

CONTENT BEGIN
  00 : 4E19;
  01 : 4E19;
  02 : 4E19;
  03 : 4E19;
  04 : 4E19;
  05 : 4E19;
  06 : 4E19;
  07 : B71C;
  08 : 7BF1;
  09 : 522B;
  0A : 4A4A;
  0B : 4A6B;
  0C : 5249;
  0D : 522B;
  0E : 4A4A;
  0F : 524A;
  10 : 524A;
  11 : 524A;
  12 : 524A;
  13 : 524A;
  14 : 524A;
  15 : 524A;
  16 : 524A;
  17 : 524A;
  18 : 524A;
  19 : 524B;
  1A : 522B;
  1B : 524A;
  1C : 524A;
  1D : 522B;
  1E : 524B;
  1F : 4A4B;
  20 : 522A;
  21 : 524A;
  22 : 534F;
  23 : A6FC;
  24 : 4E19;
  25 : 4E19;
  26 : 4E19;
  27 : 4E19;
  28 : 4E19;
  29 : 4E19;
  2A : 4E19;
  2B : 4E19;
  2C : 4E19;
  2D : 4E19;
  2E : 4E19;
  2F : 4E19;
  30 : 4E19;
  31 : 4E19;
  32 : 4E19;
  33 : 4E19;
  34 : 4E19;
  35 : 4E19;
  36 : 4E19;
  37 : 4E19;
  38 : 4E19;
  39 : 4E19;
  3A : 4E19;
  3B : 4E19;
  3C : 4E19;
  3D : 4E19;
  3E : 4E19;
  3F : 4E19;
  40 : 4E19;
  41 : 4E19;
  42 : 4E19;
  43 : 4E19;
  44 : 4E19;
  45 : 4E19;
  46 : 4E19;
  47 : 4E19;
  48 : 4E19;
  49 : 4E19;
  4A : 4E19;
  4B : 4E19;
  4C : 4E19;
  4D : 4E19;
  4E : 4E19;
  4F : 4E19;
  50 : 4E19;
  51 : 4E19;
  52 : 4E19;
  53 : 4E19;
  54 : 4E19;
  55 : 4E19;
  56 : 4E19;
  57 : 4E19;
  58 : 4E19;
  59 : 4E19;
  5A : 4E19;
  5B : 4E19;
  5C : 4E19;
  5D : 4E19;
  5E : 4E19;
  5F : 4E19;
  60 : 4E19;
  61 : 4E19;
  62 : 4E19;
  63 : 4E19;
  64 : 4E19;
  65 : 4E19;
  66 : 4E19;
  67 : 4E19;
  68 : 4E19;
  69 : 4E19;
  6A : 4E19;
  6B : 4E19;
  6C : 4E19;
  6D : 4E19;
  6E : 4E19;
  6F : 4E19;
  70 : 4E19;
  71 : 4E19;
  72 : 4E19;
  73 : 4E19;
  74 : 4E19;
  75 : 4E19;
  76 : 4E19;
  77 : 4E19;
  78 : 4E19;
  79 : 4E19;
  7A : 4E19;
  7B : 4E19;
  7C : 4E19;
  7D : 4E19;
  7E : 4E19;
  7F : 4E19;
  80 : 4E19;
  81 : 4E19;
  82 : 4E19;
  83 : 4E19;
  84 : 4E19;
  85 : 4E19;
  86 : 4E19;
  87 : 4E19;
  88 : 4E19;
  89 : 4E19;
  8A : 4E19;
  8B : 4E19;
  8C : 4E19;
  8D : 4E19;
  8E : 4E19;
  8F : 4E19;
  90 : 4E19;
  91 : 4E19;
  92 : 4E19;
  93 : 4E19;
  94 : 4E19;
  95 : 4E19;
  96 : 4E19;
  97 : A6BB;
  98 : 528B;
  99 : 522B;
  9A : 4A4A;
  9B : 4A6B;
  9C : 5249;
  9D : 522B;
  9E : 4A4A;
  9F : 524A;
  A0 : 524B;
  A1 : 524A;
  A2 : 524A;
  A3 : 524A;
  A4 : 524A;
  A5 : 524A;
  A6 : 524A;
  A7 : 524A;
  A8 : 522A;
  A9 : 5A2A;
  AA : 534F;
  AB : 8EBB;
  AC : 4E19;
  AD : 4E19;
  AE : 4E19;
  AF : 4E19;
  B0 : 4E19;
  B1 : 4E19;
  B2 : 4E19;
  B3 : 4E19;
  B4 : 4E19;
  B5 : 4E19;
  B6 : 4E19;
  B7 : 4E19;
  B8 : 4E19;
  B9 : 4E19;
  BA : 4E19;
  BB : 4E19;
  BC : 4E19;
  BD : 4E19;
  BE : 4E19;
  BF : 4E19;
  C0 : 4E19;
  C1 : 4E19;
  C2 : 4E19;
  C3 : 4E19;
  C4 : 4E19;
  C5 : 4E19;
  C6 : 4E19;
  C7 : 4E19;
  C8 : 4E19;
  C9 : 4E19;
  CA : 4E19;
  CB : 4E19;
  CC : 4E19;
  CD : 4E19;
  CE : 4E19;
  CF : 4E19;
  D0 : 4E19;
  D1 : 4E19;
  D2 : 4E19;
  D3 : 4E19;
  D4 : 4E19;
  D5 : 4E19;
  D6 : 4E19;
  D7 : 4E19;
  D8 : 4E19;
  D9 : 4E19;
  DA : 4E19;
  DB : 4E19;
  DC : 4E19;
  DD : 4E19;
  DE : 4E19;
  DF : 4E19;
  E0 : 4E19;
  E1 : 4E19;
  E2 : 4E19;
  E3 : 4E19;
  E4 : 4E19;
  E5 : 4E19;
  E6 : 4E19;
  E7 : 4E19;
  E8 : 4E19;
  E9 : 4E19;
  EA : 4E19;
  EB : 4E19;
  EC : 4E19;
  ED : 4E19;
  EE : 4E19;
  EF : 4E19;
  F0 : 4E19;
  F1 : 4E19;
  F2 : 4E19;
  F3 : 4E19;
  F4 : 4E19;
  F5 : 4E19;
  F6 : 4E19;
  F7 : 4E19;
  F8 : 4E19;
  F9 : 4E19;
  FA : 4E19;
  FB : 4E19;
  FC : 4E19;
  FD : 4E19;
  FE : 4E19;
  FF : 4E19;
  100 : 4E19;
  101 : 4E19;
  102 : 4E19;
  103 : 4E19;
  104 : 4E19;
  105 : 4E19;
  106 : 4E19;
  107 : A6FC;
  108 : 9CB3;
  109 : 51A8;
  10A : 51A7;
  10B : 51A8;
  10C : 51A7;
  10D : 51A9;
  10E : 49C8;
  10F : 49A8;
  110 : 49A8;
  111 : 49A8;
  112 : 49A8;
  113 : 49A8;
  114 : 49A8;
  115 : 49A8;
  116 : 49A8;
  117 : 49A8;
  118 : 49C8;
  119 : 49C8;
  11A : 51A8;
  11B : 49A8;
  11C : 49A8;
  11D : 51A8;
  11E : 51A8;
  11F : 51C8;
  120 : 49C9;
  121 : 49E8;
  122 : 4B0E;
  123 : A6FC;
  124 : 4E19;
  125 : 4E19;
  126 : 4E19;
  127 : 4E19;
  128 : 4E19;
  129 : 4E19;
  12A : 4E19;
  12B : 4E19;
  12C : 4E19;
  12D : 4E19;
  12E : 4E19;
  12F : 4E19;
  130 : 4E19;
  131 : 4E19;
  132 : 4E19;
  133 : 4E19;
  134 : 4E19;
  135 : 4E19;
  136 : 4E19;
  137 : 4E19;
  138 : 4E19;
  139 : 4E19;
  13A : 4E19;
  13B : 4E19;
  13C : 4E19;
  13D : 4E19;
  13E : 4E19;
  13F : 4E19;
  140 : 4E19;
  141 : 4E19;
  142 : 4E19;
  143 : 4E19;
  144 : 4E19;
  145 : 4E19;
  146 : 4E19;
  147 : 4E19;
  148 : 4E19;
  149 : 4E19;
  14A : 4E19;
  14B : 4E19;
  14C : 4E19;
  14D : 4E19;
  14E : 4E19;
  14F : 4E19;
  150 : 4E19;
  151 : 4E19;
  152 : 4E19;
  153 : 4E19;
  154 : 4E19;
  155 : 4E19;
  156 : 4E19;
  157 : 4E19;
  158 : 4E19;
  159 : 4E19;
  15A : 4E19;
  15B : 4E19;
  15C : 4E19;
  15D : 4E19;
  15E : 4E19;
  15F : 4E19;
  160 : 4E19;
  161 : 4E19;
  162 : 4E19;
  163 : 4E19;
  164 : 4E19;
  165 : 4E19;
  166 : 4E19;
  167 : 4E19;
  168 : 4E19;
  169 : 4E19;
  16A : 4E19;
  16B : 4E19;
  16C : 4E19;
  16D : 4E19;
  16E : 4E19;
  16F : 4E19;
  170 : 4E19;
  171 : 4E19;
  172 : 4E19;
  173 : 4E19;
  174 : 4E19;
  175 : 4E19;
  176 : 4E19;
  177 : 4E19;
  178 : 4E19;
  179 : 4E19;
  17A : 4E19;
  17B : 4E19;
  17C : 4E19;
  17D : 4E19;
  17E : 4E19;
  17F : 4E19;
  180 : 4E19;
  181 : 4E19;
  182 : 4E19;
  183 : 4E19;
  184 : 4E19;
  185 : 4E19;
  186 : 4E19;
  187 : 4E19;
  188 : 4E19;
  189 : 4E19;
  18A : 4E19;
  18B : 4E19;
  18C : 4E19;
  18D : 4E19;
  18E : 4E19;
  18F : 4E19;
  190 : 4E19;
  191 : 4E19;
  192 : 4E19;
  193 : 4E19;
  194 : 4E19;
  195 : 4E19;
  196 : 4E19;
  197 : A6DB;
  198 : 5208;
  199 : 51A8;
  19A : 51A7;
  19B : 51A8;
  19C : 51A7;
  19D : 51A9;
  19E : 49C8;
  19F : 49A8;
  1A0 : 49A8;
  1A1 : 49A8;
  1A2 : 49A8;
  1A3 : 49A8;
  1A4 : 49A8;
  1A5 : 49A8;
  1A6 : 49A8;
  1A7 : 49A8;
  1A8 : 49C8;
  1A9 : 51A8;
  1AA : 4AED;
  1AB : CF7E;
  1AC : AF1C;
  1AD : AF1C;
  1AE : 9EFC;
  1AF : 4E19;
  1B0 : 4E19;
  1B1 : 4E19;
  1B2 : 4E19;
  1B3 : 4E19;
  1B4 : 4E19;
  1B5 : 4E19;
  1B6 : 4E19;
  1B7 : 4E19;
  1B8 : 4E19;
  1B9 : 4E19;
  1BA : 4E19;
  1BB : 4E19;
  1BC : 4E19;
  1BD : 4E19;
  1BE : 4E19;
  1BF : 4E19;
  1C0 : 4E19;
  1C1 : 4E19;
  1C2 : 4E19;
  1C3 : 4E19;
  1C4 : 4E19;
  1C5 : 4E19;
  1C6 : 4E19;
  1C7 : 4E19;
  1C8 : 4E19;
  1C9 : 4E19;
  1CA : 4E19;
  1CB : 4E19;
  1CC : 4E19;
  1CD : 4E19;
  1CE : 4E19;
  1CF : 4E19;
  1D0 : 4E19;
  1D1 : 4E19;
  1D2 : 4E19;
  1D3 : 4E19;
  1D4 : 4E19;
  1D5 : 4E19;
  1D6 : 4E19;
  1D7 : 4E19;
  1D8 : 4E19;
  1D9 : 4E19;
  1DA : 4E19;
  1DB : 4E19;
  1DC : 4E19;
  1DD : 4E19;
  1DE : 4E19;
  1DF : 4E19;
  1E0 : 4E19;
  1E1 : 4E19;
  1E2 : 4E19;
  1E3 : 4E19;
  1E4 : 4E19;
  1E5 : 4E19;
  1E6 : 4E19;
  1E7 : 4E19;
  1E8 : 4E19;
  1E9 : 4E19;
  1EA : 4E19;
  1EB : 4E19;
  1EC : 4E19;
  1ED : 4E19;
  1EE : 4E19;
  1EF : 4E19;
  1F0 : 4E19;
  1F1 : 4E19;
  1F2 : 4E19;
  1F3 : 4E19;
  1F4 : 4E19;
  1F5 : 4E19;
  1F6 : 4E19;
  1F7 : 4E19;
  1F8 : 4E19;
  1F9 : 4E19;
  1FA : 4E19;
  1FB : 4E19;
  1FC : 4E19;
  1FD : 4E19;
  1FE : 4E19;
  1FF : 4E19;
  200 : 4E19;
  201 : 4E19;
  202 : 4E19;
  203 : 4E19;
  204 : 5619;
  205 : A6FC;
  206 : A6FC;
  207 : C75D;
  208 : B576;
  209 : 6AAC;
  20A : 6AAB;
  20B : 6A8C;
  20C : 6A8B;
  20D : 6A8C;
  20E : 62AB;
  20F : 6A8B;
  210 : 6AAB;
  211 : 6AAB;
  212 : 6AAB;
  213 : 6AAB;
  214 : 6AAB;
  215 : 6AAB;
  216 : 6AAB;
  217 : 6AAB;
  218 : 6A8B;
  219 : 6A8B;
  21A : 6A8B;
  21B : 6A8B;
  21C : 6A8B;
  21D : 6AAB;
  21E : 6A8B;
  21F : 6A8B;
  220 : 51C9;
  221 : 51C8;
  222 : 4AED;
  223 : A6DC;
  224 : 4E19;
  225 : 4E19;
  226 : 4E19;
  227 : 4E19;
  228 : 4E19;
  229 : 4E19;
  22A : 4E19;
  22B : 4E19;
  22C : 4E19;
  22D : 4E19;
  22E : 4E19;
  22F : 4E19;
  230 : 4E19;
  231 : 4E19;
  232 : 4E19;
  233 : 4E19;
  234 : 4E19;
  235 : 4E19;
  236 : 4E19;
  237 : 4E19;
  238 : 4E19;
  239 : 4E19;
  23A : 4E19;
  23B : 4E19;
  23C : 4E19;
  23D : 4E19;
  23E : 4E19;
  23F : 4E19;
  240 : 4E19;
  241 : 4E19;
  242 : 4E19;
  243 : 4E19;
  244 : 4E19;
  245 : 4E19;
  246 : 4E19;
  247 : 4E19;
  248 : 4E19;
  249 : 4E19;
  24A : 4E19;
  24B : 4E19;
  24C : 4E19;
  24D : 4E19;
  24E : 4E19;
  24F : 4E19;
  250 : 4E19;
  251 : 4E19;
  252 : 4E19;
  253 : 4E19;
  254 : 4E19;
  255 : 4E19;
  256 : 4E19;
  257 : 4E19;
  258 : 4E19;
  259 : 4E19;
  25A : 4E19;
  25B : 4E19;
  25C : 4E19;
  25D : 4E19;
  25E : 4E19;
  25F : 4E19;
  260 : 4E19;
  261 : 4E19;
  262 : 4E19;
  263 : 4E19;
  264 : 4E19;
  265 : 4E19;
  266 : 4E19;
  267 : 4E19;
  268 : 4E19;
  269 : 4E19;
  26A : 4E19;
  26B : 4E19;
  26C : 4E19;
  26D : 4E19;
  26E : 4E19;
  26F : 4E19;
  270 : 4E19;
  271 : 4E19;
  272 : 4E19;
  273 : 4E19;
  274 : 4E19;
  275 : 4E19;
  276 : 4E19;
  277 : 4E19;
  278 : 4E19;
  279 : 4E19;
  27A : 4E19;
  27B : 4E19;
  27C : 4E19;
  27D : 4E19;
  27E : 4E19;
  27F : 4E19;
  280 : 4E19;
  281 : 4E19;
  282 : 4E19;
  283 : 4E19;
  284 : 4E19;
  285 : 4E19;
  286 : 4E19;
  287 : 4E19;
  288 : 4E19;
  289 : 4E19;
  28A : 4E19;
  28B : 4E19;
  28C : 4E19;
  28D : 4E19;
  28E : 4E19;
  28F : 4E19;
  290 : 4E19;
  291 : 4E19;
  292 : 4E19;
  293 : 4E19;
  294 : 4E19;
  295 : 4E19;
  296 : 6E5A;
  297 : AEBB;
  298 : 62CC;
  299 : 6AAC;
  29A : 6AAB;
  29B : 6A8C;
  29C : 6A8B;
  29D : 72CC;
  29E : 730C;
  29F : 730D;
  2A0 : 730D;
  2A1 : 730D;
  2A2 : 730D;
  2A3 : 730D;
  2A4 : 730D;
  2A5 : 730D;
  2A6 : 72ED;
  2A7 : 72ED;
  2A8 : 62CC;
  2A9 : 62AB;
  2AA : 636F;
  2AB : 7DD7;
  2AC : 7DB8;
  2AD : 7659;
  2AE : B71C;
  2AF : 767A;
  2B0 : 4E19;
  2B1 : 4E19;
  2B2 : 4E19;
  2B3 : 4E19;
  2B4 : 4E19;
  2B5 : 4E19;
  2B6 : 4E19;
  2B7 : 4E19;
  2B8 : 4E19;
  2B9 : 4E19;
  2BA : 4E19;
  2BB : 4E19;
  2BC : 4E19;
  2BD : 4E19;
  2BE : 4E19;
  2BF : 4E19;
  2C0 : 4E19;
  2C1 : 4E19;
  2C2 : 4E19;
  2C3 : 4E19;
  2C4 : 4E19;
  2C5 : 4E19;
  2C6 : 4E19;
  2C7 : 4E19;
  2C8 : 4E19;
  2C9 : 4E19;
  2CA : 4E19;
  2CB : 4E19;
  2CC : 4E19;
  2CD : 4E19;
  2CE : 4E19;
  2CF : 4E19;
  2D0 : 4E19;
  2D1 : 4E19;
  2D2 : 4E19;
  2D3 : 4E19;
  2D4 : 4E19;
  2D5 : 4E19;
  2D6 : 4E19;
  2D7 : 4E19;
  2D8 : 4E19;
  2D9 : 4E19;
  2DA : 4E19;
  2DB : 4E19;
  2DC : 4E19;
  2DD : 4E19;
  2DE : 4E19;
  2DF : 4E19;
  2E0 : 4E19;
  2E1 : 4E19;
  2E2 : 4E19;
  2E3 : 4E19;
  2E4 : 4E19;
  2E5 : 4E19;
  2E6 : 4E19;
  2E7 : 4E19;
  2E8 : 4E19;
  2E9 : 4E19;
  2EA : 4E19;
  2EB : 4E19;
  2EC : 4E19;
  2ED : 4E19;
  2EE : 4E19;
  2EF : 4E19;
  2F0 : 4E19;
  2F1 : 4E19;
  2F2 : 4E19;
  2F3 : 4E19;
  2F4 : 4E19;
  2F5 : 4E19;
  2F6 : 4E19;
  2F7 : 4E19;
  2F8 : 4E19;
  2F9 : 4E19;
  2FA : 4E19;
  2FB : 4E19;
  2FC : 4E19;
  2FD : 4E19;
  2FE : 4E19;
  2FF : 4E19;
  300 : 4E19;
  301 : 4E19;
  302 : 4E19;
  303 : 4E19;
  304 : 9EFC;
  305 : B639;
  306 : 9412;
  307 : 9452;
  308 : DEDB;
  309 : D679;
  30A : CE79;
  30B : CE7A;
  30C : D65A;
  30D : D679;
  30E : D678;
  30F : D65A;
  310 : D679;
  311 : D679;
  312 : D679;
  313 : D679;
  314 : D679;
  315 : D679;
  316 : D679;
  317 : D679;
  318 : D67A;
  319 : D679;
  31A : CE79;
  31B : CE7A;
  31C : D679;
  31D : CE79;
  31E : CE79;
  31F : CE18;
  320 : 622A;
  321 : 51C8;
  322 : 52ED;
  323 : A6DB;
  324 : 4E19;
  325 : 4E19;
  326 : 4E19;
  327 : 4E19;
  328 : 4E19;
  329 : 4E19;
  32A : 4E19;
  32B : 4E19;
  32C : 4E19;
  32D : 4E19;
  32E : 4E19;
  32F : 4E19;
  330 : 4E19;
  331 : 4E19;
  332 : 4E19;
  333 : 4E19;
  334 : 4E19;
  335 : 4E19;
  336 : 4E19;
  337 : 4E19;
  338 : 4E19;
  339 : 4E19;
  33A : 4E19;
  33B : 4E19;
  33C : 4E19;
  33D : 4E19;
  33E : 4E19;
  33F : 4E19;
  340 : 4E19;
  341 : 4E19;
  342 : 4E19;
  343 : 4E19;
  344 : 4E19;
  345 : 4E19;
  346 : 4E19;
  347 : 4E19;
  348 : 4E19;
  349 : 4E19;
  34A : 4E19;
  34B : 4E19;
  34C : 4E19;
  34D : 4E19;
  34E : 4E19;
  34F : 4E19;
  350 : 4E19;
  351 : 4E19;
  352 : 4E19;
  353 : 4E19;
  354 : 4E19;
  355 : 4E19;
  356 : 4E19;
  357 : 4E19;
  358 : 4E19;
  359 : 4E19;
  35A : 4E19;
  35B : 4E19;
  35C : 4E19;
  35D : 4E19;
  35E : 4E19;
  35F : 4E19;
  360 : 4E19;
  361 : 4E19;
  362 : 4E19;
  363 : 4E19;
  364 : 4E19;
  365 : 4E19;
  366 : 4E19;
  367 : 4E19;
  368 : 4E19;
  369 : 4E19;
  36A : 4E19;
  36B : 4E19;
  36C : 4E19;
  36D : 4E19;
  36E : 4E19;
  36F : 4E19;
  370 : 4E19;
  371 : 4E19;
  372 : 4E19;
  373 : 4E19;
  374 : 4E19;
  375 : 4E19;
  376 : 4E19;
  377 : 4E19;
  378 : 4E19;
  379 : 4E19;
  37A : 4E19;
  37B : 4E19;
  37C : 4E19;
  37D : 4E19;
  37E : 4E19;
  37F : 4E19;
  380 : 4E19;
  381 : 4E19;
  382 : 4E19;
  383 : 4E19;
  384 : 4E19;
  385 : 4E19;
  386 : 4E19;
  387 : 4E19;
  388 : 4E19;
  389 : 4E19;
  38A : 4E19;
  38B : 4E19;
  38C : 4E19;
  38D : 4E19;
  38E : 4E19;
  38F : 4E19;
  390 : 4E19;
  391 : 4E19;
  392 : 767A;
  393 : 96DB;
  394 : 96DB;
  395 : 96DB;
  396 : CF1C;
  397 : 9CB4;
  398 : BE59;
  399 : D679;
  39A : D699;
  39B : CE9A;
  39C : CEDB;
  39D : D71B;
  39E : DF3C;
  39F : DF3C;
  3A0 : DF3C;
  3A1 : DF3C;
  3A2 : DF5C;
  3A3 : DF3C;
  3A4 : DF5C;
  3A5 : DF5C;
  3A6 : DF3C;
  3A7 : DF3C;
  3A8 : DEFA;
  3A9 : D699;
  3AA : AD35;
  3AB : 42AC;
  3AC : 42AD;
  3AD : 3CD3;
  3AE : A6FB;
  3AF : AF1C;
  3B0 : 665A;
  3B1 : 665A;
  3B2 : 4E19;
  3B3 : 4E19;
  3B4 : 4E19;
  3B5 : 4E19;
  3B6 : 4E19;
  3B7 : 4E19;
  3B8 : 4E19;
  3B9 : 4E19;
  3BA : 4E19;
  3BB : 4E19;
  3BC : 4E19;
  3BD : 4E19;
  3BE : 4E19;
  3BF : 4E19;
  3C0 : 4E19;
  3C1 : 4E19;
  3C2 : 4E19;
  3C3 : 4E19;
  3C4 : 4E19;
  3C5 : 4E19;
  3C6 : 4E19;
  3C7 : 4E19;
  3C8 : 4E19;
  3C9 : 4E19;
  3CA : 4E19;
  3CB : 4E19;
  3CC : 665A;
  3CD : 665A;
  3CE : 665A;
  3CF : 665A;
  3D0 : 665A;
  3D1 : 665A;
  3D2 : 665A;
  3D3 : 665A;
  3D4 : 665A;
  3D5 : 665A;
  3D6 : 665A;
  3D7 : 665A;
  3D8 : 665A;
  3D9 : 665A;
  3DA : 665A;
  3DB : 665A;
  3DC : 665A;
  3DD : 665A;
  3DE : 665A;
  3DF : 665A;
  3E0 : 5619;
  3E1 : 4E19;
  3E2 : 4E19;
  3E3 : 4E19;
  3E4 : 4E19;
  3E5 : 4E19;
  3E6 : 4E19;
  3E7 : 4E19;
  3E8 : 4E19;
  3E9 : 4E19;
  3EA : 4E19;
  3EB : 4E19;
  3EC : 4E19;
  3ED : 4E19;
  3EE : 4E19;
  3EF : 4E19;
  3F0 : 4E19;
  3F1 : 4E19;
  3F2 : 4E19;
  3F3 : 4E19;
  3F4 : 4E19;
  3F5 : 4E19;
  3F6 : 4E19;
  3F7 : 4E19;
  3F8 : 4E19;
  3F9 : 4E19;
  3FA : 4E19;
  3FB : 4E19;
  3FC : 4E19;
  3FD : 4E19;
  3FE : 4E19;
  3FF : 4E19;
  400 : 4E19;
  401 : 4E19;
  402 : 4E19;
  403 : 663A;
  404 : DFBE;
  405 : 8CD4;
  406 : 38E5;
  407 : 4147;
  408 : F77E;
  409 : FFFF;
  40A : FFFF;
  40B : FFFF;
  40C : FFFF;
  40D : FFFF;
  40E : FFFF;
  40F : FFFF;
  410 : FFFF;
  411 : FFFF;
  412 : FFFF;
  413 : FFFF;
  414 : FFFF;
  415 : FFFF;
  416 : FFFF;
  417 : FFFF;
  418 : FFFF;
  419 : FFFF;
  41A : FFFF;
  41B : FFFF;
  41C : FFFF;
  41D : FFFF;
  41E : FFFF;
  41F : FFFF;
  420 : 624A;
  421 : 51C8;
  422 : 4B0D;
  423 : A6DB;
  424 : 4E19;
  425 : 4E19;
  426 : 4E19;
  427 : 4E19;
  428 : 4E19;
  429 : 4E19;
  42A : 4E19;
  42B : 4E19;
  42C : 4E19;
  42D : 4E19;
  42E : 4E19;
  42F : 4E19;
  430 : 4E19;
  431 : 4E19;
  432 : 4E19;
  433 : 4E19;
  434 : 4E19;
  435 : 4E19;
  436 : 4E19;
  437 : 4E19;
  438 : 4E19;
  439 : 4E19;
  43A : 4E19;
  43B : 4E19;
  43C : 4E19;
  43D : 4E19;
  43E : 4E19;
  43F : 4E19;
  440 : 4E19;
  441 : 4E19;
  442 : 4E19;
  443 : 4E19;
  444 : 4E19;
  445 : 4E19;
  446 : 4E19;
  447 : 4E19;
  448 : 4E19;
  449 : 4E19;
  44A : 4E19;
  44B : 4E19;
  44C : 4E19;
  44D : 4E19;
  44E : 4E19;
  44F : 4E19;
  450 : 4E19;
  451 : 4E19;
  452 : 4E19;
  453 : 4E19;
  454 : 4E19;
  455 : 4E19;
  456 : 4E19;
  457 : 4E19;
  458 : 4E19;
  459 : 4E19;
  45A : 4E19;
  45B : 4E19;
  45C : 4E19;
  45D : 4E19;
  45E : 4E19;
  45F : 4E19;
  460 : 4E19;
  461 : 4E19;
  462 : 4E19;
  463 : 4E19;
  464 : 4E19;
  465 : 4E19;
  466 : 663A;
  467 : 6E5A;
  468 : 869B;
  469 : 869B;
  46A : 869B;
  46B : 869B;
  46C : 869B;
  46D : 869B;
  46E : 869B;
  46F : 869B;
  470 : 869B;
  471 : 869B;
  472 : 869B;
  473 : 869B;
  474 : 869B;
  475 : 869B;
  476 : 869B;
  477 : 869B;
  478 : 869B;
  479 : 869B;
  47A : 869B;
  47B : 869B;
  47C : 5619;
  47D : 4E19;
  47E : 4E19;
  47F : 4E19;
  480 : 4E19;
  481 : 4E19;
  482 : 4E19;
  483 : 4E19;
  484 : 4E19;
  485 : 4E19;
  486 : 4E19;
  487 : 4E19;
  488 : 4E19;
  489 : 4E19;
  48A : 4E19;
  48B : 4E19;
  48C : 4E19;
  48D : 4E19;
  48E : 4E19;
  48F : 4E19;
  490 : 4E19;
  491 : 4E19;
  492 : B71C;
  493 : 9EFC;
  494 : 9EFC;
  495 : 9576;
  496 : 838E;
  497 : 5A2A;
  498 : DF9E;
  499 : FFFF;
  49A : E7BE;
  49B : EFDE;
  49C : F7DE;
  49D : EFDE;
  49E : EFDE;
  49F : EFDE;
  4A0 : EFDE;
  4A1 : EFDE;
  4A2 : EFDE;
  4A3 : EFDE;
  4A4 : EFDE;
  4A5 : EFDE;
  4A6 : EFDE;
  4A7 : EFDE;
  4A8 : F7DE;
  4A9 : FFFF;
  4AA : C639;
  4AB : 4946;
  4AC : 4147;
  4AD : 4C72;
  4AE : 96DB;
  4AF : C77E;
  4B0 : AF1C;
  4B1 : AF1C;
  4B2 : 6E5A;
  4B3 : 4E19;
  4B4 : 4E19;
  4B5 : 4E19;
  4B6 : 4E19;
  4B7 : 4E19;
  4B8 : 4E19;
  4B9 : 4E19;
  4BA : 4E19;
  4BB : 4E19;
  4BC : 4E19;
  4BD : 4E19;
  4BE : 4E19;
  4BF : 4E19;
  4C0 : 4E19;
  4C1 : 4E19;
  4C2 : 4E19;
  4C3 : 4E19;
  4C4 : 4E19;
  4C5 : 4E19;
  4C6 : 4E19;
  4C7 : 4E19;
  4C8 : 4E19;
  4C9 : 4E19;
  4CA : 4E19;
  4CB : 96DB;
  4CC : AF1C;
  4CD : AF3D;
  4CE : AF3D;
  4CF : AF3D;
  4D0 : AF3D;
  4D1 : AF3D;
  4D2 : AF3D;
  4D3 : AF3D;
  4D4 : AF3D;
  4D5 : AF3D;
  4D6 : AF3D;
  4D7 : AF3D;
  4D8 : AF3D;
  4D9 : AF3D;
  4DA : AF3D;
  4DB : AF3D;
  4DC : AF3D;
  4DD : AF3D;
  4DE : AF3D;
  4DF : AF3D;
  4E0 : 7E9B;
  4E1 : 4E19;
  4E2 : 4E19;
  4E3 : 4E19;
  4E4 : 4E19;
  4E5 : 4E19;
  4E6 : 4E19;
  4E7 : 4E19;
  4E8 : 4E19;
  4E9 : 4E19;
  4EA : 4E19;
  4EB : 4E19;
  4EC : 4E19;
  4ED : 4E19;
  4EE : 4E19;
  4EF : 4E19;
  4F0 : 4E19;
  4F1 : 4E19;
  4F2 : 4E19;
  4F3 : 4E19;
  4F4 : 4E19;
  4F5 : 4E19;
  4F6 : 4E19;
  4F7 : 4E19;
  4F8 : 4E19;
  4F9 : 4E19;
  4FA : 4E19;
  4FB : 4E19;
  4FC : 4E19;
  4FD : 4E19;
  4FE : 4E19;
  4FF : 4E19;
  500 : 4E19;
  501 : 4E19;
  502 : 663A;
  503 : B6FC;
  504 : D6FB;
  505 : A576;
  506 : 7B4D;
  507 : 7BAF;
  508 : F79E;
  509 : FFFF;
  50A : FFBD;
  50B : FF39;
  50C : FF3A;
  50D : F75A;
  50E : F759;
  50F : F73A;
  510 : F73A;
  511 : F73A;
  512 : F73A;
  513 : F73A;
  514 : F73A;
  515 : F73A;
  516 : F73A;
  517 : F73A;
  518 : F73A;
  519 : FF59;
  51A : F75A;
  51B : FF3A;
  51C : F739;
  51D : FFBD;
  51E : FFFF;
  51F : F79E;
  520 : 624A;
  521 : 51C8;
  522 : 4B0D;
  523 : A6DB;
  524 : 4E19;
  525 : 4E19;
  526 : 4E19;
  527 : 4E19;
  528 : 4E19;
  529 : 4E19;
  52A : 4E19;
  52B : 4E19;
  52C : 4E19;
  52D : 4E19;
  52E : 4E19;
  52F : 4E19;
  530 : 4E19;
  531 : 4E19;
  532 : 4E19;
  533 : 4E19;
  534 : 4E19;
  535 : 4E19;
  536 : 4E19;
  537 : 4E19;
  538 : 4E19;
  539 : 4E19;
  53A : 4E19;
  53B : 4E19;
  53C : 4E19;
  53D : 4E19;
  53E : 4E19;
  53F : 4E19;
  540 : 4E19;
  541 : 4E19;
  542 : 4E19;
  543 : 4E19;
  544 : 4E19;
  545 : 4E19;
  546 : 4E19;
  547 : 4E19;
  548 : 4E19;
  549 : 4E19;
  54A : 4E19;
  54B : 4E19;
  54C : 4E19;
  54D : 4E19;
  54E : 4E19;
  54F : 4E19;
  550 : 4E19;
  551 : 4E19;
  552 : 4E19;
  553 : 4E19;
  554 : 4E19;
  555 : 4E19;
  556 : 4E19;
  557 : 4E19;
  558 : 4E19;
  559 : 4E19;
  55A : 4E19;
  55B : 4E19;
  55C : 4E19;
  55D : 4E19;
  55E : 4E19;
  55F : 4E19;
  560 : 4E19;
  561 : 4E19;
  562 : 4E19;
  563 : 4E19;
  564 : 4E19;
  565 : 96BB;
  566 : A6FC;
  567 : B71D;
  568 : AE39;
  569 : AE39;
  56A : AE39;
  56B : AE19;
  56C : AE19;
  56D : AE19;
  56E : AE39;
  56F : AE39;
  570 : AE39;
  571 : AE39;
  572 : AE39;
  573 : AE39;
  574 : AE39;
  575 : AE39;
  576 : AE39;
  577 : AE39;
  578 : AE39;
  579 : AE19;
  57A : A67A;
  57B : A71C;
  57C : 767A;
  57D : 4E19;
  57E : 4E19;
  57F : 4E19;
  580 : 4E19;
  581 : 4E19;
  582 : 4E19;
  583 : 4E19;
  584 : 4E19;
  585 : 4E19;
  586 : 4E19;
  587 : 4E19;
  588 : 4E19;
  589 : 4E19;
  58A : 4E19;
  58B : 4E19;
  58C : 4E19;
  58D : 4E19;
  58E : 4E19;
  58F : 4E19;
  590 : 4E19;
  591 : 4E19;
  592 : 9E9A;
  593 : 3C94;
  594 : 3C93;
  595 : 536E;
  596 : 72EC;
  597 : 8431;
  598 : F7FE;
  599 : FFFE;
  59A : EFDE;
  59B : EFBD;
  59C : E75C;
  59D : DF3B;
  59E : DF3A;
  59F : DF1B;
  5A0 : DF3A;
  5A1 : DF3A;
  5A2 : DF3A;
  5A3 : DF3A;
  5A4 : DF3A;
  5A5 : DF1A;
  5A6 : DF3B;
  5A7 : DF5C;
  5A8 : EFDE;
  5A9 : F7DE;
  5AA : D71B;
  5AB : 83CF;
  5AC : 7B4E;
  5AD : 6452;
  5AE : 6515;
  5AF : 7576;
  5B0 : 7659;
  5B1 : 765A;
  5B2 : 8EBB;
  5B3 : 4E19;
  5B4 : 4E19;
  5B5 : 4E19;
  5B6 : 4E19;
  5B7 : 4E19;
  5B8 : 4E19;
  5B9 : 4E19;
  5BA : 4E19;
  5BB : 4E19;
  5BC : 4E19;
  5BD : 4E19;
  5BE : 4E19;
  5BF : 4E19;
  5C0 : 4E19;
  5C1 : 4E19;
  5C2 : 4E19;
  5C3 : 4E19;
  5C4 : 4E19;
  5C5 : 4E19;
  5C6 : 4E19;
  5C7 : 4E19;
  5C8 : 4E19;
  5C9 : 4E19;
  5CA : 4E19;
  5CB : B71C;
  5CC : 767A;
  5CD : 75D7;
  5CE : 7576;
  5CF : 7556;
  5D0 : 7556;
  5D1 : 7556;
  5D2 : 7556;
  5D3 : 7556;
  5D4 : 7556;
  5D5 : 7556;
  5D6 : 7556;
  5D7 : 7556;
  5D8 : 7556;
  5D9 : 7556;
  5DA : 7556;
  5DB : 7556;
  5DC : 7556;
  5DD : 7556;
  5DE : 7576;
  5DF : 7576;
  5E0 : B71D;
  5E1 : 4E19;
  5E2 : 4E19;
  5E3 : 4E19;
  5E4 : 4E19;
  5E5 : 4E19;
  5E6 : 4E19;
  5E7 : 4E19;
  5E8 : 4E19;
  5E9 : 4E19;
  5EA : 4E19;
  5EB : 4E19;
  5EC : 4E19;
  5ED : 4E19;
  5EE : 4E19;
  5EF : 4E19;
  5F0 : 4E19;
  5F1 : 4E19;
  5F2 : 4E19;
  5F3 : 4E19;
  5F4 : 4E19;
  5F5 : 4E19;
  5F6 : 4E19;
  5F7 : 4E19;
  5F8 : 4E19;
  5F9 : 4E19;
  5FA : 4E19;
  5FB : 4E19;
  5FC : 4E19;
  5FD : 4E19;
  5FE : 4E19;
  5FF : 4E19;
  600 : 4E19;
  601 : 4E19;
  602 : 9EFC;
  603 : BDD8;
  604 : 73AF;
  605 : C5F8;
  606 : DEDB;
  607 : DEDC;
  608 : FFDE;
  609 : FFFF;
  60A : F739;
  60B : F58D;
  60C : F56E;
  60D : F58D;
  60E : F58C;
  60F : F58C;
  610 : F58D;
  611 : F58D;
  612 : F58D;
  613 : F58D;
  614 : F58D;
  615 : F58D;
  616 : F58D;
  617 : F58D;
  618 : F58D;
  619 : F58C;
  61A : ED8D;
  61B : ED8D;
  61C : ED8D;
  61D : F738;
  61E : FFFF;
  61F : F79D;
  620 : 624A;
  621 : 51C8;
  622 : 4AED;
  623 : A6DB;
  624 : 4E19;
  625 : 4E19;
  626 : 4E19;
  627 : 4E19;
  628 : 4E19;
  629 : 4E19;
  62A : 4E19;
  62B : 4E19;
  62C : 4E19;
  62D : 4E19;
  62E : 4E19;
  62F : 4E19;
  630 : 4E19;
  631 : 4E19;
  632 : 4E19;
  633 : 4E19;
  634 : 4E19;
  635 : 4E19;
  636 : 4E19;
  637 : 4E19;
  638 : 4E19;
  639 : 4E19;
  63A : 4E19;
  63B : 4E19;
  63C : 4E19;
  63D : 4E19;
  63E : 4E19;
  63F : 4E19;
  640 : 4E19;
  641 : 4E19;
  642 : 4E19;
  643 : 4E19;
  644 : 4E19;
  645 : 4E19;
  646 : 4E19;
  647 : 4E19;
  648 : 4E19;
  649 : 4E19;
  64A : 4E19;
  64B : 4E19;
  64C : 4E19;
  64D : 4E19;
  64E : 4E19;
  64F : 4E19;
  650 : 4E19;
  651 : 4E19;
  652 : 4E19;
  653 : 4E19;
  654 : 4E19;
  655 : 4E19;
  656 : 4E19;
  657 : 4E19;
  658 : 4E19;
  659 : 4E19;
  65A : 4E19;
  65B : 4E19;
  65C : 4E19;
  65D : 4E19;
  65E : 4E19;
  65F : 4E19;
  660 : 4E19;
  661 : 4E19;
  662 : 4E19;
  663 : 4E19;
  664 : 4E19;
  665 : D77E;
  666 : A6FC;
  667 : A6FC;
  668 : 3A8B;
  669 : 3A4A;
  66A : 3A4A;
  66B : 3A4A;
  66C : 3A4A;
  66D : 3A4A;
  66E : 3A4A;
  66F : 3A4A;
  670 : 3A4A;
  671 : 3A4A;
  672 : 3A4A;
  673 : 3A4A;
  674 : 3A4A;
  675 : 3A4A;
  676 : 3A4A;
  677 : 3A4A;
  678 : 3A4B;
  679 : 3A4B;
  67A : 3370;
  67B : 3DB7;
  67C : 8EBB;
  67D : 4E19;
  67E : 4E19;
  67F : 4E19;
  680 : 4E19;
  681 : 4E19;
  682 : 4E19;
  683 : 4E19;
  684 : 4E19;
  685 : 4E19;
  686 : 4E19;
  687 : 4E19;
  688 : 4E19;
  689 : 4E19;
  68A : 4E19;
  68B : 4E19;
  68C : 4E19;
  68D : 4E19;
  68E : 4E19;
  68F : 4E19;
  690 : 5E39;
  691 : 5E3A;
  692 : A618;
  693 : 528C;
  694 : 4A8B;
  695 : AD55;
  696 : E6FC;
  697 : EFDE;
  698 : FFFE;
  699 : F7DE;
  69A : F7DE;
  69B : F673;
  69C : F58E;
  69D : F58D;
  69E : F58C;
  69F : F58C;
  6A0 : F58C;
  6A1 : F58C;
  6A2 : F58C;
  6A3 : F58C;
  6A4 : F58D;
  6A5 : F56D;
  6A6 : F58D;
  6A7 : F5CE;
  6A8 : D77D;
  6A9 : F7DE;
  6AA : F7FE;
  6AB : D73C;
  6AC : CEDB;
  6AD : 83D1;
  6AE : 4A6C;
  6AF : 428B;
  6B0 : 4597;
  6B1 : 45D7;
  6B2 : 86BB;
  6B3 : 4E19;
  6B4 : 4E19;
  6B5 : 4E19;
  6B6 : 4E19;
  6B7 : 4E19;
  6B8 : 4E19;
  6B9 : 4E19;
  6BA : 4E19;
  6BB : 4E19;
  6BC : 4E19;
  6BD : 4E19;
  6BE : 4E19;
  6BF : 4E19;
  6C0 : 4E19;
  6C1 : 4E19;
  6C2 : 4E19;
  6C3 : 4E19;
  6C4 : 4E19;
  6C5 : 4E19;
  6C6 : 4E19;
  6C7 : 4E19;
  6C8 : 4E19;
  6C9 : 4E19;
  6CA : 4E19;
  6CB : A6FC;
  6CC : 45F7;
  6CD : 3BB0;
  6CE : 426C;
  6CF : 426B;
  6D0 : 426B;
  6D1 : 426B;
  6D2 : 426B;
  6D3 : 426B;
  6D4 : 426B;
  6D5 : 426B;
  6D6 : 426B;
  6D7 : 426B;
  6D8 : 426B;
  6D9 : 426B;
  6DA : 426B;
  6DB : 4A6B;
  6DC : 426B;
  6DD : 426B;
  6DE : 426B;
  6DF : 428B;
  6E0 : C75D;
  6E1 : 4E19;
  6E2 : 4E19;
  6E3 : 4E19;
  6E4 : 4E19;
  6E5 : 4E19;
  6E6 : 4E19;
  6E7 : 4E19;
  6E8 : 4E19;
  6E9 : 4E19;
  6EA : 4E19;
  6EB : 4E19;
  6EC : 4E19;
  6ED : 4E19;
  6EE : 4E19;
  6EF : 4E19;
  6F0 : 4E19;
  6F1 : 4E19;
  6F2 : 4E19;
  6F3 : 4E19;
  6F4 : 4E19;
  6F5 : 4E19;
  6F6 : 4E19;
  6F7 : 4E19;
  6F8 : 4E19;
  6F9 : 4E19;
  6FA : 4E19;
  6FB : 4E19;
  6FC : 4E19;
  6FD : 4E19;
  6FE : 4E19;
  6FF : 4E19;
  700 : 5E3A;
  701 : 5E39;
  702 : CF7E;
  703 : A4D4;
  704 : 4987;
  705 : C5D7;
  706 : FFFF;
  707 : FFFF;
  708 : FFFF;
  709 : FFFF;
  70A : F718;
  70B : F508;
  70C : FCC8;
  70D : FCE7;
  70E : FCE7;
  70F : FCE7;
  710 : FCE7;
  711 : FCE7;
  712 : FCE7;
  713 : FCE7;
  714 : FCE7;
  715 : FCE7;
  716 : FCE7;
  717 : FCE7;
  718 : FCC7;
  719 : FCC7;
  71A : FCE8;
  71B : FCE8;
  71C : F4E9;
  71D : F6F7;
  71E : F7FF;
  71F : F79E;
  720 : 624A;
  721 : 51C8;
  722 : 4AED;
  723 : A6DB;
  724 : 4E19;
  725 : 4E19;
  726 : 4E19;
  727 : 4E19;
  728 : 4E19;
  729 : 4E19;
  72A : 4E19;
  72B : 4E19;
  72C : 4E19;
  72D : 4E19;
  72E : 4E19;
  72F : 4E19;
  730 : 4E19;
  731 : 4E19;
  732 : 4E19;
  733 : 4E19;
  734 : 4E19;
  735 : 4E19;
  736 : 4E19;
  737 : 4E19;
  738 : 4E19;
  739 : 4E19;
  73A : 4E19;
  73B : 4E19;
  73C : 4E19;
  73D : 4E19;
  73E : 4E19;
  73F : 4E19;
  740 : 4E19;
  741 : 4E19;
  742 : 4E19;
  743 : 4E19;
  744 : 4E19;
  745 : 4E19;
  746 : 4E19;
  747 : 4E19;
  748 : 4E19;
  749 : 4E19;
  74A : 4E19;
  74B : 4E19;
  74C : 4E19;
  74D : 4E19;
  74E : 4E19;
  74F : 4E19;
  750 : 4E19;
  751 : 4E19;
  752 : 4E19;
  753 : 4E19;
  754 : 4E19;
  755 : 4E19;
  756 : 4E19;
  757 : 4E19;
  758 : 4E19;
  759 : 4E19;
  75A : 4E19;
  75B : 4E19;
  75C : 4E19;
  75D : 4E19;
  75E : 4E19;
  75F : 4E19;
  760 : 4E19;
  761 : 4E19;
  762 : 4E19;
  763 : 4E19;
  764 : 5619;
  765 : C75D;
  766 : 8EBB;
  767 : 8E9B;
  768 : 51E8;
  769 : 51A7;
  76A : 5187;
  76B : 5188;
  76C : 5187;
  76D : 5187;
  76E : 5187;
  76F : 5187;
  770 : 5187;
  771 : 5187;
  772 : 5187;
  773 : 5187;
  774 : 5187;
  775 : 5187;
  776 : 5187;
  777 : 5187;
  778 : 5188;
  779 : 5169;
  77A : 4AEE;
  77B : 4DD7;
  77C : 96DC;
  77D : 5E19;
  77E : 4E19;
  77F : 4E19;
  780 : 4E19;
  781 : 4E19;
  782 : 4E19;
  783 : 4E19;
  784 : 4E19;
  785 : 4E19;
  786 : 4E19;
  787 : 4E19;
  788 : 4E19;
  789 : 4E19;
  78A : 4E19;
  78B : 4E19;
  78C : 4E19;
  78D : 4E19;
  78E : 4E19;
  78F : 5619;
  790 : 9EDC;
  791 : AF1C;
  792 : 95B7;
  793 : 49A9;
  794 : 51A8;
  795 : C5F8;
  796 : F7FF;
  797 : FFFE;
  798 : F7DE;
  799 : EFDE;
  79A : F77B;
  79B : F54A;
  79C : FCC8;
  79D : FCE7;
  79E : FCE7;
  79F : FCE7;
  7A0 : FCE7;
  7A1 : FCE7;
  7A2 : FCE7;
  7A3 : FCE7;
  7A4 : FCE7;
  7A5 : FCE8;
  7A6 : FCE8;
  7A7 : FD09;
  7A8 : CF7C;
  7A9 : EFDE;
  7AA : F7DE;
  7AB : FFFF;
  7AC : F7DE;
  7AD : 93D1;
  7AE : 5189;
  7AF : 51C8;
  7B0 : 4D97;
  7B1 : 4DD8;
  7B2 : 9EDC;
  7B3 : 5E39;
  7B4 : 4E19;
  7B5 : 4E19;
  7B6 : 4E19;
  7B7 : 4E19;
  7B8 : 4E19;
  7B9 : 4E19;
  7BA : 4E19;
  7BB : 4E19;
  7BC : 4E19;
  7BD : 4E19;
  7BE : 4E19;
  7BF : 4E19;
  7C0 : 4E19;
  7C1 : 4E19;
  7C2 : 4E19;
  7C3 : 4E19;
  7C4 : 4E19;
  7C5 : 4E19;
  7C6 : 4E19;
  7C7 : 4E19;
  7C8 : 4E19;
  7C9 : 4E19;
  7CA : 4E19;
  7CB : A6FC;
  7CC : 4DF7;
  7CD : 4B0E;
  7CE : 5189;
  7CF : 5187;
  7D0 : 5187;
  7D1 : 5187;
  7D2 : 5187;
  7D3 : 5187;
  7D4 : 5187;
  7D5 : 5187;
  7D6 : 5187;
  7D7 : 5187;
  7D8 : 5187;
  7D9 : 5187;
  7DA : 5187;
  7DB : 5187;
  7DC : 5187;
  7DD : 5187;
  7DE : 4987;
  7DF : 51C8;
  7E0 : CF7D;
  7E1 : 4E19;
  7E2 : 4E19;
  7E3 : 4E19;
  7E4 : 4E19;
  7E5 : 4E19;
  7E6 : 4E19;
  7E7 : 4E19;
  7E8 : 4E19;
  7E9 : 4E19;
  7EA : 4E19;
  7EB : 4E19;
  7EC : 4E19;
  7ED : 4E19;
  7EE : 4E19;
  7EF : 4E19;
  7F0 : 4E19;
  7F1 : 4E19;
  7F2 : 4E19;
  7F3 : 4E19;
  7F4 : 4E19;
  7F5 : 4E19;
  7F6 : 4E19;
  7F7 : 4E19;
  7F8 : 4E19;
  7F9 : 4E19;
  7FA : 4E19;
  7FB : 4E19;
  7FC : 4E19;
  7FD : 4E19;
  7FE : 4E19;
  7FF : 4E19;
  800 : C73C;
  801 : BEFC;
  802 : E75D;
  803 : AD35;
  804 : 628B;
  805 : CDF9;
  806 : FFFF;
  807 : FFFE;
  808 : FFBC;
  809 : FF9D;
  80A : FED6;
  80B : F528;
  80C : FCE8;
  80D : F508;
  80E : FCE9;
  80F : FCE8;
  810 : FD08;
  811 : FD08;
  812 : FD08;
  813 : FD08;
  814 : FD08;
  815 : FD08;
  816 : FD08;
  817 : FD08;
  818 : F509;
  819 : FCE8;
  81A : FCE9;
  81B : FD08;
  81C : FD08;
  81D : F6F7;
  81E : F7FF;
  81F : F79D;
  820 : 624A;
  821 : 51C8;
  822 : 4AED;
  823 : A6DB;
  824 : 4E19;
  825 : 4E19;
  826 : 4E19;
  827 : 4E19;
  828 : 4E19;
  829 : 4E19;
  82A : 4E19;
  82B : 4E19;
  82C : 4E19;
  82D : 4E19;
  82E : 4E19;
  82F : 4E19;
  830 : 4E19;
  831 : 4E19;
  832 : 4E19;
  833 : 4E19;
  834 : 4E19;
  835 : 4E19;
  836 : 4E19;
  837 : 4E19;
  838 : 4E19;
  839 : 4E19;
  83A : 4E19;
  83B : 4E19;
  83C : 4E19;
  83D : 4E19;
  83E : 4E19;
  83F : 4E19;
  840 : 4E19;
  841 : 4E19;
  842 : 4E19;
  843 : 4E19;
  844 : 4E19;
  845 : 4E19;
  846 : 4E19;
  847 : 4E19;
  848 : 4E19;
  849 : 4E19;
  84A : 4E19;
  84B : 4E19;
  84C : 4E19;
  84D : 4E19;
  84E : 4E19;
  84F : 4E19;
  850 : 4E19;
  851 : 4E19;
  852 : 4E19;
  853 : 4E19;
  854 : 4E19;
  855 : 4E19;
  856 : 4E19;
  857 : 4E19;
  858 : 4E19;
  859 : 4E19;
  85A : 4E19;
  85B : 4E19;
  85C : 4E19;
  85D : 4E19;
  85E : 4E19;
  85F : 4E19;
  860 : 4E19;
  861 : 4E19;
  862 : 4E19;
  863 : 4E19;
  864 : 8EBB;
  865 : A6BB;
  866 : 4D56;
  867 : 4D36;
  868 : 628C;
  869 : 626B;
  86A : 626B;
  86B : 626B;
  86C : 624B;
  86D : 626B;
  86E : 626B;
  86F : 626B;
  870 : 626B;
  871 : 626B;
  872 : 626B;
  873 : 626B;
  874 : 626B;
  875 : 626B;
  876 : 626B;
  877 : 626B;
  878 : 626A;
  879 : 6A6B;
  87A : 5B4F;
  87B : 4D76;
  87C : CF1C;
  87D : A6DC;
  87E : 5619;
  87F : 4E19;
  880 : 4E19;
  881 : 4E19;
  882 : 4E19;
  883 : 4E19;
  884 : 4E19;
  885 : 4E19;
  886 : 4E19;
  887 : 4E19;
  888 : 4E19;
  889 : 4E19;
  88A : 4E19;
  88B : 4E19;
  88C : 4E19;
  88D : 4E19;
  88E : 4E19;
  88F : 7E7A;
  890 : 8E59;
  891 : 9639;
  892 : 74F4;
  893 : 628C;
  894 : 6A8B;
  895 : C639;
  896 : F7DE;
  897 : F7DE;
  898 : EFDE;
  899 : DF7D;
  89A : F6F7;
  89B : F528;
  89C : FCE8;
  89D : F508;
  89E : FCE9;
  89F : FCE8;
  8A0 : FD08;
  8A1 : FD08;
  8A2 : FD08;
  8A3 : FD08;
  8A4 : FD08;
  8A5 : F4E9;
  8A6 : FD09;
  8A7 : FD09;
  8A8 : EF5B;
  8A9 : D75C;
  8AA : F7DE;
  8AB : F7DE;
  8AC : F7DE;
  8AD : ACD4;
  8AE : 628C;
  8AF : 62AB;
  8B0 : 4D35;
  8B1 : 4D56;
  8B2 : DF5D;
  8B3 : B71D;
  8B4 : 5619;
  8B5 : 4E19;
  8B6 : 4E19;
  8B7 : 4E19;
  8B8 : 4E19;
  8B9 : 4E19;
  8BA : 4E19;
  8BB : 4E19;
  8BC : 4E19;
  8BD : 4E19;
  8BE : 4E19;
  8BF : 4E19;
  8C0 : 4E19;
  8C1 : 4E19;
  8C2 : 4E19;
  8C3 : 4E19;
  8C4 : 4E19;
  8C5 : 4E19;
  8C6 : 4E19;
  8C7 : 4E19;
  8C8 : 4E19;
  8C9 : 4E19;
  8CA : 4E19;
  8CB : A6BB;
  8CC : 4D76;
  8CD : 5B6F;
  8CE : 626B;
  8CF : 5AAA;
  8D0 : 626B;
  8D1 : 6AAC;
  8D2 : 730D;
  8D3 : 7B4E;
  8D4 : 7B8F;
  8D5 : 7B8F;
  8D6 : 7B8F;
  8D7 : 7B8F;
  8D8 : 7B8F;
  8D9 : 7B8F;
  8DA : 7B8F;
  8DB : 838F;
  8DC : 838F;
  8DD : 730D;
  8DE : 628C;
  8DF : 62AC;
  8E0 : FFFE;
  8E1 : 5619;
  8E2 : 5619;
  8E3 : 5619;
  8E4 : 4E19;
  8E5 : 4E19;
  8E6 : 4E19;
  8E7 : 4E19;
  8E8 : 4E19;
  8E9 : 4E19;
  8EA : 4E19;
  8EB : 4E19;
  8EC : 4E19;
  8ED : 4E19;
  8EE : 4E19;
  8EF : 4E19;
  8F0 : 4E19;
  8F1 : 4E19;
  8F2 : 4E19;
  8F3 : 4E19;
  8F4 : 4E19;
  8F5 : 4E19;
  8F6 : 4E19;
  8F7 : 4E19;
  8F8 : 4E19;
  8F9 : 4E19;
  8FA : 4E19;
  8FB : 4E19;
  8FC : 4E19;
  8FD : 4E19;
  8FE : 4E19;
  8FF : 4E19;
  900 : 73B0;
  901 : 5A6B;
  902 : 83F1;
  903 : E71C;
  904 : E71C;
  905 : FF9E;
  906 : FFFF;
  907 : FFDE;
  908 : FD8D;
  909 : F56C;
  90A : FD4B;
  90B : F4E9;
  90C : FCE8;
  90D : FCE8;
  90E : FCE8;
  90F : FD08;
  910 : FD08;
  911 : FD08;
  912 : FD08;
  913 : FD08;
  914 : FD08;
  915 : FD08;
  916 : FD08;
  917 : FD08;
  918 : FD08;
  919 : FD08;
  91A : FD08;
  91B : FD08;
  91C : FD08;
  91D : F6F7;
  91E : F7FF;
  91F : F7BE;
  920 : 5A69;
  921 : 59C8;
  922 : 4AED;
  923 : A6DB;
  924 : 4E19;
  925 : 4E19;
  926 : 4E19;
  927 : 4E19;
  928 : 4E19;
  929 : 4E19;
  92A : 4E19;
  92B : 4E19;
  92C : 4E19;
  92D : 4E19;
  92E : 4E19;
  92F : 4E19;
  930 : 4E19;
  931 : 4E19;
  932 : 4E19;
  933 : 4E19;
  934 : 4E19;
  935 : 4E19;
  936 : 4E19;
  937 : 4E19;
  938 : 4E19;
  939 : 4E19;
  93A : 4E19;
  93B : 4E19;
  93C : 4E19;
  93D : 4E19;
  93E : 4E19;
  93F : 4E19;
  940 : 4E19;
  941 : 4E19;
  942 : 4E19;
  943 : 4E19;
  944 : 4E19;
  945 : 4E19;
  946 : 4E19;
  947 : 4E19;
  948 : 4E19;
  949 : 4E19;
  94A : 4E19;
  94B : 4E19;
  94C : 4E19;
  94D : 4E19;
  94E : 4E19;
  94F : 4E19;
  950 : 4E19;
  951 : 4E19;
  952 : 4E19;
  953 : 4E19;
  954 : 4E19;
  955 : 4E19;
  956 : 4E19;
  957 : 4E19;
  958 : 4E19;
  959 : 4E19;
  95A : 4E19;
  95B : 4E19;
  95C : 4E19;
  95D : 4E19;
  95E : 4E19;
  95F : 4E19;
  960 : 4E19;
  961 : 4E19;
  962 : 4E19;
  963 : 4E19;
  964 : 8EBB;
  965 : 9D56;
  966 : 524A;
  967 : 528A;
  968 : DEBB;
  969 : EF1C;
  96A : E71C;
  96B : E71C;
  96C : EF1B;
  96D : EF1C;
  96E : E73D;
  96F : E73B;
  970 : E71C;
  971 : E71C;
  972 : E71C;
  973 : E71C;
  974 : E71C;
  975 : E71C;
  976 : E71C;
  977 : E71C;
  978 : EEFC;
  979 : E71A;
  97A : B5B6;
  97B : 5A6C;
  97C : 5A6A;
  97D : 9DF8;
  97E : 86BB;
  97F : 4E19;
  980 : 4E19;
  981 : 4E19;
  982 : 4E19;
  983 : 4E19;
  984 : 4E19;
  985 : 4E19;
  986 : 4E19;
  987 : 4E19;
  988 : 4E19;
  989 : 4E19;
  98A : 4E19;
  98B : 4E19;
  98C : 4E19;
  98D : 4E19;
  98E : 4E19;
  98F : 8EBB;
  990 : 52AB;
  991 : 5A6A;
  992 : 7BD1;
  993 : A69A;
  994 : F7BE;
  995 : FFFE;
  996 : F7DE;
  997 : EFDE;
  998 : F673;
  999 : F58D;
  99A : FD4B;
  99B : F4E9;
  99C : FCE8;
  99D : FCE8;
  99E : FCE8;
  99F : FD08;
  9A0 : FCE8;
  9A1 : FCE8;
  9A2 : FD08;
  9A3 : FD08;
  9A4 : FD08;
  9A5 : FCE8;
  9A6 : FCE8;
  9A7 : FCE8;
  9A8 : F56B;
  9A9 : FD8C;
  9AA : F718;
  9AB : F7DE;
  9AC : F7DE;
  9AD : F7DE;
  9AE : E79D;
  9AF : AEBB;
  9B0 : 5ACB;
  9B1 : 526B;
  9B2 : 536F;
  9B3 : A6DB;
  9B4 : 86BB;
  9B5 : 4E19;
  9B6 : 4E19;
  9B7 : 4E19;
  9B8 : 4E19;
  9B9 : 4E19;
  9BA : 4E19;
  9BB : 4E19;
  9BC : 4E19;
  9BD : 4E19;
  9BE : 4E19;
  9BF : 4E19;
  9C0 : 4E19;
  9C1 : 4E19;
  9C2 : 4E19;
  9C3 : 4E19;
  9C4 : 4E19;
  9C5 : 4E19;
  9C6 : 4E19;
  9C7 : 4E19;
  9C8 : 4E19;
  9C9 : 4E19;
  9CA : 4E19;
  9CB : AD35;
  9CC : 4A6C;
  9CD : B595;
  9CE : B6BA;
  9CF : AEFC;
  9D0 : E79D;
  9D1 : D77D;
  9D2 : D77D;
  9D3 : DF9D;
  9D4 : DF9D;
  9D5 : DF9D;
  9D6 : E79D;
  9D7 : E79D;
  9D8 : DF9D;
  9D9 : E79D;
  9DA : DF9D;
  9DB : E79D;
  9DC : E79D;
  9DD : F7DE;
  9DE : F7DE;
  9DF : FFDE;
  9E0 : FFFF;
  9E1 : E7BE;
  9E2 : BF1C;
  9E3 : AF1C;
  9E4 : 5E3A;
  9E5 : 4E19;
  9E6 : 4E19;
  9E7 : 4E19;
  9E8 : 4E19;
  9E9 : 4E19;
  9EA : 4E19;
  9EB : 4E19;
  9EC : 4E19;
  9ED : 4E19;
  9EE : 4E19;
  9EF : 4E19;
  9F0 : 4E19;
  9F1 : 4E19;
  9F2 : 4E19;
  9F3 : 4E19;
  9F4 : 4E19;
  9F5 : 4E19;
  9F6 : 4E19;
  9F7 : 4E19;
  9F8 : 4E19;
  9F9 : 4E19;
  9FA : 4E19;
  9FB : 4E19;
  9FC : 4E19;
  9FD : 4E19;
  9FE : 4E19;
  9FF : 4E19;
  A00 : 522A;
  A01 : 51A8;
  A02 : 83AF;
  A03 : FFDE;
  A04 : FFFF;
  A05 : FFFE;
  A06 : FFFF;
  A07 : FFDF;
  A08 : FD4A;
  A09 : F509;
  A0A : F4E9;
  A0B : FCE9;
  A0C : FD08;
  A0D : FD08;
  A0E : FD08;
  A0F : FD08;
  A10 : FD08;
  A11 : FD08;
  A12 : FD08;
  A13 : FD08;
  A14 : FD08;
  A15 : FD08;
  A16 : FD08;
  A17 : FD08;
  A18 : FCE8;
  A19 : FD08;
  A1A : FD08;
  A1B : FCE8;
  A1C : FCE8;
  A1D : F6F7;
  A1E : FFFF;
  A1F : F79E;
  A20 : 624A;
  A21 : 59A9;
  A22 : 4AED;
  A23 : A6DB;
  A24 : 8EBB;
  A25 : 7E7A;
  A26 : 7E7A;
  A27 : 7E7A;
  A28 : 7E7A;
  A29 : 7E7A;
  A2A : 7E7A;
  A2B : 7E7A;
  A2C : 7E7A;
  A2D : 7E7A;
  A2E : 7E7A;
  A2F : 7E7A;
  A30 : 7E7A;
  A31 : 7E7A;
  A32 : 7E7A;
  A33 : 7E7A;
  A34 : 7E7A;
  A35 : 7E7A;
  A36 : 7E7A;
  A37 : 7E7A;
  A38 : 7E7A;
  A39 : 7E7A;
  A3A : 7E7A;
  A3B : 7E7A;
  A3C : 7E7A;
  A3D : 7E7A;
  A3E : 7E7A;
  A3F : 7E7A;
  A40 : 7E7A;
  A41 : 7E7A;
  A42 : 7E7A;
  A43 : 7E7A;
  A44 : 7E7A;
  A45 : 7E7A;
  A46 : 7E7A;
  A47 : 7E7A;
  A48 : 7E7A;
  A49 : 7E7A;
  A4A : 7E7A;
  A4B : 7E7A;
  A4C : 7E7A;
  A4D : 7E7A;
  A4E : 7E7A;
  A4F : 7E7A;
  A50 : 7E7A;
  A51 : 7E7A;
  A52 : 7E7A;
  A53 : 7E7A;
  A54 : 7E7A;
  A55 : 7E7A;
  A56 : 7E7A;
  A57 : 7E7A;
  A58 : 7E7A;
  A59 : 7E7A;
  A5A : 7E7A;
  A5B : 7E7A;
  A5C : 7E7A;
  A5D : 7E7A;
  A5E : 7E7A;
  A5F : 7E7A;
  A60 : 7E7A;
  A61 : 7E7A;
  A62 : 7E7A;
  A63 : 7E7A;
  A64 : A6FC;
  A65 : 9515;
  A66 : 49A9;
  A67 : 59E9;
  A68 : EF7D;
  A69 : FFFE;
  A6A : FFFF;
  A6B : FFFF;
  A6C : FFFF;
  A6D : FFFF;
  A6E : F7FF;
  A6F : FFFF;
  A70 : FFFF;
  A71 : FFFF;
  A72 : FFFF;
  A73 : FFFF;
  A74 : FFFF;
  A75 : FFFF;
  A76 : FFFF;
  A77 : FFFF;
  A78 : FFFF;
  A79 : FFFE;
  A7A : C617;
  A7B : 49AA;
  A7C : 49A8;
  A7D : 95B7;
  A7E : 7E9B;
  A7F : 4E19;
  A80 : 4E19;
  A81 : 4E19;
  A82 : 4E19;
  A83 : 4E19;
  A84 : 4E19;
  A85 : 4E19;
  A86 : 4E19;
  A87 : 4E19;
  A88 : 4E19;
  A89 : 4E19;
  A8A : 4E19;
  A8B : 4E19;
  A8C : 4E19;
  A8D : 4E19;
  A8E : 4E19;
  A8F : 8EBB;
  A90 : 520A;
  A91 : 59C8;
  A92 : 83AF;
  A93 : C75D;
  A94 : FFFF;
  A95 : EFBE;
  A96 : EFDE;
  A97 : E7BE;
  A98 : F5AE;
  A99 : F509;
  A9A : F4E9;
  A9B : FCE9;
  A9C : FD08;
  A9D : FD08;
  A9E : FD08;
  A9F : FD08;
  AA0 : FD08;
  AA1 : FD08;
  AA2 : FD08;
  AA3 : FD08;
  AA4 : FD08;
  AA5 : FCE8;
  AA6 : FCE8;
  AA7 : FD08;
  AA8 : F509;
  AA9 : FCE8;
  AAA : EE11;
  AAB : DF9E;
  AAC : F7DE;
  AAD : F7DE;
  AAE : FFFE;
  AAF : C75C;
  AB0 : 624A;
  AB1 : 51C9;
  AB2 : 430E;
  AB3 : A6FB;
  AB4 : 869B;
  AB5 : 4E19;
  AB6 : 4E19;
  AB7 : 4E19;
  AB8 : 4E19;
  AB9 : 4E19;
  ABA : 4E19;
  ABB : 4E19;
  ABC : 4E19;
  ABD : 4E19;
  ABE : 4E19;
  ABF : 4E19;
  AC0 : 4E19;
  AC1 : 4E19;
  AC2 : 4E19;
  AC3 : 4E19;
  AC4 : 4E19;
  AC5 : 4E19;
  AC6 : 4E19;
  AC7 : 4E19;
  AC8 : 4E19;
  AC9 : 4E19;
  ACA : 4E19;
  ACB : A4D4;
  ACC : 49A9;
  ACD : C5D6;
  ACE : AF1C;
  ACF : F7DE;
  AD0 : F7DE;
  AD1 : F7DE;
  AD2 : EFDE;
  AD3 : EFDE;
  AD4 : EFDE;
  AD5 : EFBE;
  AD6 : EFBE;
  AD7 : EFBE;
  AD8 : EFBE;
  AD9 : EFBE;
  ADA : EFBE;
  ADB : EFBE;
  ADC : EFBE;
  ADD : EFBE;
  ADE : F7DE;
  ADF : FFFF;
  AE0 : 8BCF;
  AE1 : 5A2A;
  AE2 : 5B90;
  AE3 : AF1C;
  AE4 : B73D;
  AE5 : 7E7A;
  AE6 : 7E7A;
  AE7 : 7E7A;
  AE8 : 7E7A;
  AE9 : 7E7A;
  AEA : 7E7A;
  AEB : 7E7A;
  AEC : 7E7A;
  AED : 7E7A;
  AEE : 7E7A;
  AEF : 7E7A;
  AF0 : 7E7A;
  AF1 : 7E7A;
  AF2 : 7E7A;
  AF3 : 7E7A;
  AF4 : 7E7A;
  AF5 : 7E7A;
  AF6 : 7E7A;
  AF7 : 7E7A;
  AF8 : 7E7A;
  AF9 : 7E7A;
  AFA : 7E7A;
  AFB : 4E19;
  AFC : 4E19;
  AFD : 4E19;
  AFE : 4E19;
  AFF : 4E19;
  B00 : 4A09;
  B01 : 59C7;
  B02 : 83AF;
  B03 : FFFF;
  B04 : F7FF;
  B05 : FF9B;
  B06 : FF5B;
  B07 : FF3A;
  B08 : FD29;
  B09 : F509;
  B0A : F4E8;
  B0B : FD08;
  B0C : FCE8;
  B0D : FCE8;
  B0E : FD08;
  B0F : FD08;
  B10 : FD08;
  B11 : FD08;
  B12 : FD08;
  B13 : FD08;
  B14 : FD08;
  B15 : FD08;
  B16 : FD08;
  B17 : FD08;
  B18 : FCE8;
  B19 : FD08;
  B1A : FD08;
  B1B : FD08;
  B1C : FCE8;
  B1D : F6F7;
  B1E : FFFF;
  B1F : F79E;
  B20 : 624A;
  B21 : 51C9;
  B22 : 4AAC;
  B23 : 7D96;
  B24 : A659;
  B25 : 9E79;
  B26 : 9E79;
  B27 : 9E59;
  B28 : 9E7A;
  B29 : 9E7A;
  B2A : 9E7A;
  B2B : 9E7A;
  B2C : 9E7A;
  B2D : 9E7A;
  B2E : 9E7A;
  B2F : 9E7A;
  B30 : 9E7A;
  B31 : 9E7A;
  B32 : 9E7A;
  B33 : 9E7A;
  B34 : 9E7A;
  B35 : 9E7A;
  B36 : 9E7A;
  B37 : 9E7A;
  B38 : 9E7A;
  B39 : 9E7A;
  B3A : 9E7A;
  B3B : 9E7A;
  B3C : 9E7A;
  B3D : 9E7A;
  B3E : 9E7A;
  B3F : 9E7A;
  B40 : 9E7A;
  B41 : 9E7A;
  B42 : 9E7A;
  B43 : 9E7A;
  B44 : 9E7A;
  B45 : 9E7A;
  B46 : 9E7A;
  B47 : 9E7A;
  B48 : 9E7A;
  B49 : 9E7A;
  B4A : 9E7A;
  B4B : 9E7A;
  B4C : 9E7A;
  B4D : 9E7A;
  B4E : 9E7A;
  B4F : 9E7A;
  B50 : 9E7A;
  B51 : 9E7A;
  B52 : 9E7A;
  B53 : 9E7A;
  B54 : 9E7A;
  B55 : 9E7A;
  B56 : 9E7A;
  B57 : 9E7A;
  B58 : 9E7A;
  B59 : 9E7A;
  B5A : 9E7A;
  B5B : 9E7A;
  B5C : 9E7A;
  B5D : 9E7A;
  B5E : 9E7A;
  B5F : 9E7A;
  B60 : 9E79;
  B61 : 9E79;
  B62 : 9E7A;
  B63 : A659;
  B64 : AE7A;
  B65 : 8CD4;
  B66 : 730E;
  B67 : 834E;
  B68 : F79E;
  B69 : FFFF;
  B6A : FFDE;
  B6B : FF5B;
  B6C : FF5B;
  B6D : F77B;
  B6E : F75B;
  B6F : FF5B;
  B70 : F75B;
  B71 : F77B;
  B72 : F77B;
  B73 : F77B;
  B74 : F77B;
  B75 : F77B;
  B76 : F75B;
  B77 : FF7B;
  B78 : FFDF;
  B79 : FFFF;
  B7A : D67A;
  B7B : 730E;
  B7C : 72ED;
  B7D : ADF8;
  B7E : 4E19;
  B7F : 4E19;
  B80 : 4E19;
  B81 : 4E19;
  B82 : 4E19;
  B83 : 4E19;
  B84 : 4E19;
  B85 : 4E19;
  B86 : 4E19;
  B87 : 4E19;
  B88 : 4E19;
  B89 : 4E19;
  B8A : 4E19;
  B8B : 4E19;
  B8C : 4E19;
  B8D : 4E19;
  B8E : 4E19;
  B8F : 8EBB;
  B90 : 4A0A;
  B91 : 59A8;
  B92 : 83AF;
  B93 : C75D;
  B94 : FFFE;
  B95 : E77C;
  B96 : E75B;
  B97 : E73A;
  B98 : FD4A;
  B99 : F509;
  B9A : F4E8;
  B9B : FD08;
  B9C : FCE8;
  B9D : FCE8;
  B9E : FD08;
  B9F : FD08;
  BA0 : FD08;
  BA1 : FD08;
  BA2 : FD08;
  BA3 : FD08;
  BA4 : FCE8;
  BA5 : FCE8;
  BA6 : FCE8;
  BA7 : FD08;
  BA8 : F4E8;
  BA9 : FCE8;
  BAA : F5AF;
  BAB : EF5A;
  BAC : E77C;
  BAD : EFBE;
  BAE : F7DE;
  BAF : DFBD;
  BB0 : 622A;
  BB1 : 51A9;
  BB2 : 4AAC;
  BB3 : AE9A;
  BB4 : C75D;
  BB5 : A6FC;
  BB6 : A6FC;
  BB7 : A6FC;
  BB8 : A6FC;
  BB9 : A6FC;
  BBA : A6FC;
  BBB : A6FC;
  BBC : A6FC;
  BBD : A6FC;
  BBE : A6FC;
  BBF : A6FC;
  BC0 : A6FC;
  BC1 : A6FC;
  BC2 : A6FC;
  BC3 : A6FC;
  BC4 : A6FC;
  BC5 : A6FC;
  BC6 : A6FC;
  BC7 : A6FC;
  BC8 : A6FC;
  BC9 : A6FC;
  BCA : A6FC;
  BCB : B596;
  BCC : 730E;
  BCD : C639;
  BCE : CF7D;
  BCF : FFFE;
  BD0 : E77C;
  BD1 : EF7C;
  BD2 : E77C;
  BD3 : E77C;
  BD4 : E77C;
  BD5 : E77C;
  BD6 : E77C;
  BD7 : E75C;
  BD8 : E75B;
  BD9 : E75B;
  BDA : E75C;
  BDB : E75B;
  BDC : E75B;
  BDD : CF5D;
  BDE : EFBE;
  BDF : F7FE;
  BE0 : E6FB;
  BE1 : BDB6;
  BE2 : 5B4E;
  BE3 : 7DB7;
  BE4 : AE5A;
  BE5 : A6DB;
  BE6 : A6FC;
  BE7 : A6FC;
  BE8 : 9E7A;
  BE9 : 9E7A;
  BEA : 9E7A;
  BEB : 9E7A;
  BEC : 9E7A;
  BED : 9E7A;
  BEE : 9E7A;
  BEF : 9E7A;
  BF0 : 9E7A;
  BF1 : 9E7A;
  BF2 : 9E7A;
  BF3 : 9E7A;
  BF4 : 9E7A;
  BF5 : 9E7A;
  BF6 : 9E7A;
  BF7 : 9E7A;
  BF8 : 9E5A;
  BF9 : 9E7A;
  BFA : C73D;
  BFB : A6FC;
  BFC : 6E7A;
  BFD : 6E7A;
  BFE : 6E7A;
  BFF : 6E7A;
  C00 : 4A2A;
  C01 : 59C8;
  C02 : 83AF;
  C03 : FFDF;
  C04 : FFFF;
  C05 : F673;
  C06 : F5AD;
  C07 : F5AD;
  C08 : FD09;
  C09 : FD08;
  C0A : FD08;
  C0B : FCE8;
  C0C : FCE8;
  C0D : FCE8;
  C0E : FD08;
  C0F : FD08;
  C10 : FD08;
  C11 : FD08;
  C12 : FD08;
  C13 : FD08;
  C14 : FD08;
  C15 : FD08;
  C16 : FD08;
  C17 : FD08;
  C18 : FD08;
  C19 : F508;
  C1A : F508;
  C1B : F508;
  C1C : FD08;
  C1D : EEF7;
  C1E : FFFF;
  C1F : F7BE;
  C20 : 5A6A;
  C21 : 51C8;
  C22 : 5209;
  C23 : 52AC;
  C24 : 62AD;
  C25 : 5ACD;
  C26 : 62CD;
  C27 : 62CD;
  C28 : 5AEC;
  C29 : 5AEC;
  C2A : 5AEC;
  C2B : 5AEC;
  C2C : 5AEC;
  C2D : 5AEC;
  C2E : 5AEC;
  C2F : 5AEC;
  C30 : 5AEC;
  C31 : 5AEC;
  C32 : 5AEC;
  C33 : 5AEC;
  C34 : 5AEC;
  C35 : 5AEC;
  C36 : 5AEC;
  C37 : 5AEC;
  C38 : 5AED;
  C39 : 5AED;
  C3A : 5AED;
  C3B : 5AED;
  C3C : 5AED;
  C3D : 5AED;
  C3E : 5AED;
  C3F : 5AED;
  C40 : 5AEC;
  C41 : 5AEC;
  C42 : 5AEC;
  C43 : 5AEC;
  C44 : 5AEC;
  C45 : 5AEC;
  C46 : 5AEC;
  C47 : 5AEC;
  C48 : 5AEC;
  C49 : 5AEC;
  C4A : 5AEC;
  C4B : 5AEC;
  C4C : 5AEC;
  C4D : 5AEC;
  C4E : 5AEC;
  C4F : 5AEC;
  C50 : 5AEC;
  C51 : 5AEC;
  C52 : 5AEC;
  C53 : 5AEC;
  C54 : 5AEC;
  C55 : 5AEC;
  C56 : 5AEC;
  C57 : 5AEC;
  C58 : 62EC;
  C59 : 62EC;
  C5A : 62EC;
  C5B : 62EC;
  C5C : 62EC;
  C5D : 62EC;
  C5E : 62EC;
  C5F : 62EC;
  C60 : 62ED;
  C61 : 62ED;
  C62 : 5AED;
  C63 : 62CD;
  C64 : 5B0D;
  C65 : B596;
  C66 : D69A;
  C67 : DEBA;
  C68 : FFDF;
  C69 : FFFF;
  C6A : F759;
  C6B : F5AE;
  C6C : FD8D;
  C6D : F5AE;
  C6E : FD8E;
  C6F : FD8E;
  C70 : FD8D;
  C71 : FDAD;
  C72 : FDAD;
  C73 : FDAD;
  C74 : FDAD;
  C75 : FDAD;
  C76 : FD8D;
  C77 : FDCE;
  C78 : FFBE;
  C79 : FFFF;
  C7A : F79D;
  C7B : D6BA;
  C7C : DE99;
  C7D : D6DB;
  C7E : 96BB;
  C7F : 96DB;
  C80 : 96DB;
  C81 : 5619;
  C82 : 4E19;
  C83 : 4E19;
  C84 : 4E19;
  C85 : 4E19;
  C86 : 4E19;
  C87 : 4E19;
  C88 : 4E19;
  C89 : 4E19;
  C8A : 4E19;
  C8B : 4E19;
  C8C : 4E19;
  C8D : 4E19;
  C8E : 4E19;
  C8F : 8EBB;
  C90 : 4A0A;
  C91 : 59C8;
  C92 : 838F;
  C93 : E7BE;
  C94 : F7DE;
  C95 : EE93;
  C96 : F5AD;
  C97 : F5AD;
  C98 : FD09;
  C99 : FD08;
  C9A : FD08;
  C9B : FCE8;
  C9C : FCE8;
  C9D : FCE8;
  C9E : FD08;
  C9F : FD08;
  CA0 : FD08;
  CA1 : FD08;
  CA2 : FD08;
  CA3 : FD08;
  CA4 : FD08;
  CA5 : FCE8;
  CA6 : FCE8;
  CA7 : FD08;
  CA8 : F509;
  CA9 : FD08;
  CAA : FD2A;
  CAB : FDAD;
  CAC : FDCE;
  CAD : E75A;
  CAE : EFDE;
  CAF : E7BE;
  CB0 : 5A4A;
  CB1 : 59A9;
  CB2 : 51EA;
  CB3 : 6B2E;
  CB4 : 83D0;
  CB5 : 83D0;
  CB6 : 8BD1;
  CB7 : 8BD0;
  CB8 : 83F0;
  CB9 : 83F0;
  CBA : 83F0;
  CBB : 83F0;
  CBC : 83F0;
  CBD : 83F0;
  CBE : 83F0;
  CBF : 83F0;
  CC0 : 83F0;
  CC1 : 83F0;
  CC2 : 83F0;
  CC3 : 83F0;
  CC4 : 83F0;
  CC5 : 83F0;
  CC6 : 83F0;
  CC7 : 83F0;
  CC8 : 83F0;
  CC9 : 83F0;
  CCA : 9D15;
  CCB : CEFB;
  CCC : C69A;
  CCD : F77D;
  CCE : FFFE;
  CCF : CF7D;
  CD0 : F5CE;
  CD1 : F5AD;
  CD2 : FDAD;
  CD3 : FDAD;
  CD4 : FDAD;
  CD5 : FDAD;
  CD6 : FDAD;
  CD7 : FDAD;
  CD8 : FDAD;
  CD9 : FDAD;
  CDA : FDAE;
  CDB : FD8D;
  CDC : FDAE;
  CDD : E719;
  CDE : DF9D;
  CDF : F7DE;
  CE0 : FFFF;
  CE1 : FFFF;
  CE2 : D6BA;
  CE3 : 52EC;
  CE4 : 62EE;
  CE5 : 5CF4;
  CE6 : 5E18;
  CE7 : 5DD8;
  CE8 : 632D;
  CE9 : 5AEC;
  CEA : 62EC;
  CEB : 62EC;
  CEC : 62EC;
  CED : 62EC;
  CEE : 62EC;
  CEF : 62EC;
  CF0 : 5AEC;
  CF1 : 5AEC;
  CF2 : 5AEC;
  CF3 : 5AEC;
  CF4 : 5AEC;
  CF5 : 5AEC;
  CF6 : 5AEC;
  CF7 : 5AEC;
  CF8 : 62ED;
  CF9 : 62ED;
  CFA : 9452;
  CFB : BDD7;
  CFC : ADD8;
  CFD : ADD8;
  CFE : ADD8;
  CFF : ADF8;
  D00 : 4A09;
  D01 : 59A7;
  D02 : 8BAF;
  D03 : FFDF;
  D04 : FFFF;
  D05 : F5F0;
  D06 : FCE7;
  D07 : FCE7;
  D08 : FD08;
  D09 : FD08;
  D0A : FD08;
  D0B : FCE8;
  D0C : FCE8;
  D0D : FCE8;
  D0E : FD08;
  D0F : FD08;
  D10 : FD09;
  D11 : FD29;
  D12 : FD09;
  D13 : FD09;
  D14 : FD09;
  D15 : FD09;
  D16 : FD09;
  D17 : FD09;
  D18 : FD09;
  D19 : FD09;
  D1A : FD09;
  D1B : FD09;
  D1C : FD09;
  D1D : F717;
  D1E : F7FF;
  D1F : F7BE;
  D20 : 624A;
  D21 : 51C8;
  D22 : 5988;
  D23 : 4126;
  D24 : 5106;
  D25 : 4126;
  D26 : 4126;
  D27 : 4926;
  D28 : 4126;
  D29 : 4126;
  D2A : 4126;
  D2B : 4126;
  D2C : 4126;
  D2D : 4126;
  D2E : 4126;
  D2F : 4126;
  D30 : 4126;
  D31 : 4126;
  D32 : 4126;
  D33 : 4126;
  D34 : 4126;
  D35 : 4126;
  D36 : 4126;
  D37 : 4126;
  D38 : 4126;
  D39 : 4126;
  D3A : 4126;
  D3B : 4126;
  D3C : 4126;
  D3D : 4126;
  D3E : 4126;
  D3F : 4126;
  D40 : 4126;
  D41 : 4126;
  D42 : 4126;
  D43 : 4126;
  D44 : 4126;
  D45 : 4126;
  D46 : 4126;
  D47 : 4126;
  D48 : 4126;
  D49 : 4126;
  D4A : 4126;
  D4B : 4126;
  D4C : 4126;
  D4D : 4126;
  D4E : 4126;
  D4F : 4126;
  D50 : 4126;
  D51 : 4126;
  D52 : 4126;
  D53 : 4126;
  D54 : 4126;
  D55 : 4126;
  D56 : 4126;
  D57 : 4126;
  D58 : 4926;
  D59 : 4926;
  D5A : 4926;
  D5B : 4926;
  D5C : 4126;
  D5D : 4126;
  D5E : 4126;
  D5F : 4926;
  D60 : 4967;
  D61 : 4967;
  D62 : 5167;
  D63 : 5147;
  D64 : 4987;
  D65 : CDF8;
  D66 : FFFF;
  D67 : FFFF;
  D68 : FFFF;
  D69 : FFFF;
  D6A : F738;
  D6B : F4E8;
  D6C : FCE6;
  D6D : FCE8;
  D6E : FCC8;
  D6F : FCE7;
  D70 : FCC7;
  D71 : FCC7;
  D72 : FCC7;
  D73 : FCC7;
  D74 : FCC7;
  D75 : FCC7;
  D76 : FCC7;
  D77 : FCE8;
  D78 : FFDD;
  D79 : FFFF;
  D7A : FFFF;
  D7B : FFFF;
  D7C : FFFF;
  D7D : B536;
  D7E : 9493;
  D7F : 94B3;
  D80 : 8E7A;
  D81 : 7E7A;
  D82 : 4E19;
  D83 : 4E19;
  D84 : 4E19;
  D85 : 4E19;
  D86 : 4E19;
  D87 : 4E19;
  D88 : 4E19;
  D89 : 4E19;
  D8A : 4E19;
  D8B : 4E19;
  D8C : 4E19;
  D8D : 4E19;
  D8E : 4E19;
  D8F : 8EBB;
  D90 : 4A29;
  D91 : 59A7;
  D92 : 8B8F;
  D93 : F7FE;
  D94 : EFDE;
  D95 : F5F0;
  D96 : FCE7;
  D97 : FCE7;
  D98 : FD08;
  D99 : FD08;
  D9A : FD08;
  D9B : FCE8;
  D9C : FCE8;
  D9D : FCE8;
  D9E : FD08;
  D9F : FD08;
  DA0 : FD09;
  DA1 : FD09;
  DA2 : FD09;
  DA3 : FCE8;
  DA4 : FD08;
  DA5 : FD08;
  DA6 : FD08;
  DA7 : FD08;
  DA8 : FCE8;
  DA9 : FD08;
  DAA : FCE8;
  DAB : FCC7;
  DAC : FCC7;
  DAD : F6F7;
  DAE : EFDE;
  DAF : EFBE;
  DB0 : 5209;
  DB1 : 4947;
  DB2 : 4947;
  DB3 : 4126;
  DB4 : 3905;
  DB5 : 40E5;
  DB6 : 3905;
  DB7 : 4105;
  DB8 : 3906;
  DB9 : 3906;
  DBA : 3906;
  DBB : 3906;
  DBC : 3906;
  DBD : 3906;
  DBE : 3906;
  DBF : 3906;
  DC0 : 3906;
  DC1 : 3906;
  DC2 : 3906;
  DC3 : 3906;
  DC4 : 3906;
  DC5 : 3906;
  DC6 : 3906;
  DC7 : 3906;
  DC8 : 3906;
  DC9 : 3906;
  DCA : 6B0E;
  DCB : AF1C;
  DCC : EFBF;
  DCD : E7BE;
  DCE : D77E;
  DCF : BF5D;
  DD0 : FD09;
  DD1 : FCC7;
  DD2 : FCC7;
  DD3 : FCC7;
  DD4 : FCC7;
  DD5 : FCC7;
  DD6 : FCC7;
  DD7 : FCC7;
  DD8 : FCE7;
  DD9 : FCE7;
  DDA : FCE7;
  DDB : FCC7;
  DDC : FCE8;
  DDD : F6F6;
  DDE : F7DF;
  DDF : FFFF;
  DE0 : EFDE;
  DE1 : FFFF;
  DE2 : FFFF;
  DE3 : 51A7;
  DE4 : 5168;
  DE5 : 4C51;
  DE6 : 3DF7;
  DE7 : 4577;
  DE8 : 4967;
  DE9 : 3906;
  DEA : 4106;
  DEB : 4106;
  DEC : 40E6;
  DED : 40E6;
  DEE : 40E6;
  DEF : 40E6;
  DF0 : 40E6;
  DF1 : 40E6;
  DF2 : 40E6;
  DF3 : 40E6;
  DF4 : 40E6;
  DF5 : 40E6;
  DF6 : 40E6;
  DF7 : 40E6;
  DF8 : 4106;
  DF9 : 4106;
  DFA : 4988;
  DFB : 5A2A;
  DFC : 5A0A;
  DFD : 6A8C;
  DFE : 6A8C;
  DFF : 6ACC;
  E00 : 5209;
  E01 : 59A8;
  E02 : 8BAF;
  E03 : F7DF;
  E04 : FFFF;
  E05 : F5F0;
  E06 : FCE8;
  E07 : FCE8;
  E08 : FD08;
  E09 : FCE8;
  E0A : FD08;
  E0B : FD08;
  E0C : FCE8;
  E0D : FCE8;
  E0E : FCE8;
  E0F : FCE8;
  E10 : F467;
  E11 : F467;
  E12 : F467;
  E13 : F467;
  E14 : F467;
  E15 : F467;
  E16 : F467;
  E17 : F467;
  E18 : F467;
  E19 : F467;
  E1A : F467;
  E1B : F467;
  E1C : F467;
  E1D : EEB6;
  E1E : FFFF;
  E1F : F79E;
  E20 : 622A;
  E21 : 51C8;
  E22 : 624A;
  E23 : 838F;
  E24 : 8B6F;
  E25 : 7BAF;
  E26 : 83AF;
  E27 : 83AF;
  E28 : 838F;
  E29 : 838F;
  E2A : 838F;
  E2B : 838F;
  E2C : 838F;
  E2D : 838F;
  E2E : 838F;
  E2F : 838F;
  E30 : 838F;
  E31 : 838F;
  E32 : 838F;
  E33 : 838F;
  E34 : 838F;
  E35 : 838F;
  E36 : 838F;
  E37 : 838F;
  E38 : 838F;
  E39 : 838F;
  E3A : 838F;
  E3B : 838F;
  E3C : 838F;
  E3D : 838F;
  E3E : 838F;
  E3F : 838F;
  E40 : 838F;
  E41 : 838F;
  E42 : 838F;
  E43 : 838F;
  E44 : 838F;
  E45 : 838F;
  E46 : 838F;
  E47 : 838F;
  E48 : 838F;
  E49 : 838F;
  E4A : 838F;
  E4B : 838F;
  E4C : 838F;
  E4D : 838F;
  E4E : 838F;
  E4F : 838F;
  E50 : 838F;
  E51 : 838F;
  E52 : 838F;
  E53 : 838F;
  E54 : 838F;
  E55 : 838F;
  E56 : 838F;
  E57 : 838F;
  E58 : 838F;
  E59 : 838F;
  E5A : 838F;
  E5B : 838F;
  E5C : 838F;
  E5D : 838F;
  E5E : 838F;
  E5F : 836F;
  E60 : 51E9;
  E61 : 51C8;
  E62 : 51A8;
  E63 : 51C8;
  E64 : 51C8;
  E65 : C5F7;
  E66 : FFFF;
  E67 : FFFF;
  E68 : F719;
  E69 : F719;
  E6A : F673;
  E6B : F509;
  E6C : FD08;
  E6D : FD08;
  E6E : FD08;
  E6F : FD08;
  E70 : FCE9;
  E71 : FD09;
  E72 : FD08;
  E73 : FD08;
  E74 : FCE8;
  E75 : FD09;
  E76 : FCE9;
  E77 : FD09;
  E78 : F6F6;
  E79 : F718;
  E7A : FF5A;
  E7B : FFFF;
  E7C : FFDF;
  E7D : 8390;
  E7E : 4126;
  E7F : 3967;
  E80 : 3556;
  E81 : 8EBB;
  E82 : 4E19;
  E83 : 4E19;
  E84 : 4E19;
  E85 : 4E19;
  E86 : 4E19;
  E87 : 4E19;
  E88 : 4E19;
  E89 : 4E19;
  E8A : 4E19;
  E8B : 4E19;
  E8C : 4E19;
  E8D : 4E19;
  E8E : 4E19;
  E8F : 8EBB;
  E90 : 5209;
  E91 : 59A7;
  E92 : 838F;
  E93 : F7DE;
  E94 : F7DE;
  E95 : F5F0;
  E96 : FCE8;
  E97 : FCE8;
  E98 : FD08;
  E99 : FCE8;
  E9A : FD08;
  E9B : FD08;
  E9C : FCE8;
  E9D : FCE8;
  E9E : FCE8;
  E9F : FCE8;
  EA0 : F467;
  EA1 : F467;
  EA2 : F487;
  EA3 : FCE8;
  EA4 : FD08;
  EA5 : FD08;
  EA6 : FD08;
  EA7 : FCE8;
  EA8 : FCE8;
  EA9 : FCE8;
  EAA : FCE8;
  EAB : FD08;
  EAC : FCE8;
  EAD : F6F7;
  EAE : EFDE;
  EAF : F7DE;
  EB0 : 94B3;
  EB1 : 8BB0;
  EB2 : 8410;
  EB3 : 83AF;
  EB4 : 83AF;
  EB5 : 838F;
  EB6 : 83AF;
  EB7 : 838F;
  EB8 : 838F;
  EB9 : 838F;
  EBA : 838F;
  EBB : 838F;
  EBC : 838F;
  EBD : 838F;
  EBE : 838F;
  EBF : 838F;
  EC0 : 838F;
  EC1 : 838F;
  EC2 : 838F;
  EC3 : 838F;
  EC4 : 838F;
  EC5 : 838F;
  EC6 : 838F;
  EC7 : 838F;
  EC8 : 83AF;
  EC9 : 83B0;
  ECA : 9D35;
  ECB : B71C;
  ECC : FFFE;
  ECD : DF3A;
  ECE : C6D8;
  ECF : E6D8;
  ED0 : FD29;
  ED1 : F509;
  ED2 : F4E9;
  ED3 : FD09;
  ED4 : FD08;
  ED5 : FD08;
  ED6 : FD08;
  ED7 : FD08;
  ED8 : FCE9;
  ED9 : FD08;
  EDA : FCE9;
  EDB : FCE8;
  EDC : FD08;
  EDD : F652;
  EDE : F739;
  EDF : FF59;
  EE0 : E7BE;
  EE1 : FFFE;
  EE2 : FFFE;
  EE3 : 59C8;
  EE4 : 51A9;
  EE5 : 53AF;
  EE6 : 44B2;
  EE7 : 5473;
  EE8 : 83D0;
  EE9 : 9C72;
  EEA : 9C72;
  EEB : 9C72;
  EEC : 9C72;
  EED : 9C72;
  EEE : 9C72;
  EEF : 9C72;
  EF0 : 9C72;
  EF1 : 9C72;
  EF2 : 9C72;
  EF3 : 9C72;
  EF4 : 9C72;
  EF5 : 9C72;
  EF6 : 9C72;
  EF7 : 9C72;
  EF8 : 9C72;
  EF9 : 9C72;
  EFA : 9452;
  EFB : 9431;
  EFC : 9431;
  EFD : 5A0A;
  EFE : 4987;
  EFF : 49A8;
  F00 : 4A0A;
  F01 : 51C9;
  F02 : 83AF;
  F03 : F7FF;
  F04 : FFFF;
  F05 : F610;
  F06 : FD07;
  F07 : FD08;
  F08 : FCE8;
  F09 : FCE8;
  F0A : FD08;
  F0B : FD08;
  F0C : FCE8;
  F0D : FCE8;
  F0E : FCE8;
  F0F : FCE8;
  F10 : E343;
  F11 : E343;
  F12 : E343;
  F13 : E343;
  F14 : E343;
  F15 : E343;
  F16 : E343;
  F17 : E343;
  F18 : E343;
  F19 : E343;
  F1A : E343;
  F1B : E343;
  F1C : E343;
  F1D : EE55;
  F1E : FFFF;
  F1F : F7BE;
  F20 : 622B;
  F21 : 49C9;
  F22 : 7B4E;
  F23 : E6FC;
  F24 : E71C;
  F25 : DF3C;
  F26 : E71C;
  F27 : E71C;
  F28 : E71C;
  F29 : E71C;
  F2A : E71C;
  F2B : E71C;
  F2C : E71C;
  F2D : E71C;
  F2E : E71C;
  F2F : E71C;
  F30 : E71C;
  F31 : E71C;
  F32 : E71C;
  F33 : E71C;
  F34 : E71C;
  F35 : E71C;
  F36 : E71C;
  F37 : E71C;
  F38 : E71C;
  F39 : E71C;
  F3A : E71C;
  F3B : E71C;
  F3C : E71C;
  F3D : E71C;
  F3E : E71C;
  F3F : E71C;
  F40 : E71C;
  F41 : E71C;
  F42 : E71C;
  F43 : E71C;
  F44 : E71C;
  F45 : E71C;
  F46 : E71C;
  F47 : E71C;
  F48 : E71C;
  F49 : E71C;
  F4A : E71C;
  F4B : E71C;
  F4C : E71C;
  F4D : E71C;
  F4E : E71C;
  F4F : E71C;
  F50 : E71C;
  F51 : E71C;
  F52 : E71C;
  F53 : E71C;
  F54 : E71C;
  F55 : E71C;
  F56 : E71C;
  F57 : E71C;
  F58 : E71C;
  F59 : E71C;
  F5A : E71C;
  F5B : E71C;
  F5C : E71C;
  F5D : E71C;
  F5E : E71C;
  F5F : DEDB;
  F60 : 622A;
  F61 : 51A8;
  F62 : 51A8;
  F63 : 49C8;
  F64 : 51C9;
  F65 : C5D8;
  F66 : FFFF;
  F67 : FFDF;
  F68 : F58E;
  F69 : ED6C;
  F6A : F54B;
  F6B : FCE9;
  F6C : FCE8;
  F6D : FD08;
  F6E : FD08;
  F6F : FCE8;
  F70 : FD08;
  F71 : FD08;
  F72 : FD08;
  F73 : FD08;
  F74 : FD08;
  F75 : FD08;
  F76 : FD08;
  F77 : FD08;
  F78 : F56C;
  F79 : F54C;
  F7A : F632;
  F7B : FFFE;
  F7C : FFDF;
  F7D : 8BD0;
  F7E : 51C8;
  F7F : 49E9;
  F80 : 4D77;
  F81 : 8EBB;
  F82 : 4E19;
  F83 : 4E19;
  F84 : 4E19;
  F85 : 4E19;
  F86 : 4E19;
  F87 : 4E19;
  F88 : 4E19;
  F89 : 4E19;
  F8A : 4E19;
  F8B : 4E19;
  F8C : 4E19;
  F8D : 4E19;
  F8E : 4E19;
  F8F : 8EBB;
  F90 : 4A0A;
  F91 : 51C9;
  F92 : 83AF;
  F93 : F7DE;
  F94 : F7DE;
  F95 : F610;
  F96 : FD08;
  F97 : FCE9;
  F98 : FCE8;
  F99 : FCE8;
  F9A : FD08;
  F9B : FD08;
  F9C : FCE8;
  F9D : FCE8;
  F9E : FCE8;
  F9F : FCE8;
  FA0 : E363;
  FA1 : DB63;
  FA2 : E3C4;
  FA3 : FCE8;
  FA4 : FD08;
  FA5 : FD08;
  FA6 : FD08;
  FA7 : FCE8;
  FA8 : F509;
  FA9 : FD08;
  FAA : FCE8;
  FAB : FD08;
  FAC : FCE8;
  FAD : F6F7;
  FAE : F7FE;
  FAF : FFFE;
  FB0 : E7BE;
  FB1 : EF7D;
  FB2 : DF7D;
  FB3 : EF5C;
  FB4 : E73C;
  FB5 : E71C;
  FB6 : E71C;
  FB7 : E71C;
  FB8 : E71C;
  FB9 : E71C;
  FBA : E71C;
  FBB : E71C;
  FBC : E71C;
  FBD : E71C;
  FBE : E73C;
  FBF : DF3C;
  FC0 : DF3C;
  FC1 : DF3C;
  FC2 : DF3C;
  FC3 : DF3C;
  FC4 : DF3C;
  FC5 : DF3C;
  FC6 : DF3C;
  FC7 : E75C;
  FC8 : EF7C;
  FC9 : EF5C;
  FCA : CF3C;
  FCB : EFDE;
  FCC : FFFE;
  FCD : F632;
  FCE : F56C;
  FCF : F56C;
  FD0 : F508;
  FD1 : FD08;
  FD2 : FD08;
  FD3 : FD08;
  FD4 : FD08;
  FD5 : FD08;
  FD6 : FD08;
  FD7 : FD08;
  FD8 : FCE8;
  FD9 : FD08;
  FDA : FCE9;
  FDB : FCE8;
  FDC : FD08;
  FDD : F54B;
  FDE : ED4D;
  FDF : F58C;
  FE0 : FFFE;
  FE1 : FFFE;
  FE2 : FFFE;
  FE3 : 51C9;
  FE4 : 51A9;
  FE5 : 4A0A;
  FE6 : 4A4A;
  FE7 : 5A8C;
  FE8 : EF3C;
  FE9 : FFFF;
  FEA : FFFF;
  FEB : FFFF;
  FEC : FFFF;
  FED : FFFF;
  FEE : FFFF;
  FEF : FFFF;
  FF0 : FFFF;
  FF1 : FFFF;
  FF2 : FFFF;
  FF3 : FFFF;
  FF4 : FFFF;
  FF5 : FFFF;
  FF6 : FFFF;
  FF7 : FFFF;
  FF8 : FFFF;
  FF9 : FFFF;
  FFA : FFFF;
  FFB : FFFF;
  FFC : FFFF;
  FFD : 838F;
  FFE : 49C8;
  FFF : 51E9;
  1000 : 4A09;
  1001 : 51C9;
  1002 : 83B0;
  1003 : FFDF;
  1004 : FFFF;
  1005 : F5F1;
  1006 : FCE8;
  1007 : FCE9;
  1008 : FD08;
  1009 : FD08;
  100A : FD08;
  100B : FD08;
  100C : FD08;
  100D : FCE8;
  100E : FD08;
  100F : F4E8;
  1010 : E303;
  1011 : E2E2;
  1012 : E2E2;
  1013 : E2E2;
  1014 : E2E2;
  1015 : E2E2;
  1016 : E2E2;
  1017 : E2E2;
  1018 : DAE2;
  1019 : DAE3;
  101A : E2E2;
  101B : E2E2;
  101C : E302;
  101D : E655;
  101E : FFFF;
  101F : F7BE;
  1020 : 622A;
  1021 : 51E9;
  1022 : 838F;
  1023 : FFFF;
  1024 : FFFF;
  1025 : FFFF;
  1026 : FFFF;
  1027 : FFFF;
  1028 : FFFF;
  1029 : FFFF;
  102A : FFFF;
  102B : FFFF;
  102C : FFFF;
  102D : FFFF;
  102E : FFFF;
  102F : FFFF;
  1030 : FFFF;
  1031 : FFFF;
  1032 : FFFF;
  1033 : FFFF;
  1034 : FFFF;
  1035 : FFFF;
  1036 : FFFF;
  1037 : FFFF;
  1038 : FFFF;
  1039 : FFFF;
  103A : FFFF;
  103B : FFFF;
  103C : FFFF;
  103D : FFFF;
  103E : FFFF;
  103F : FFFF;
  1040 : FFFF;
  1041 : FFFF;
  1042 : FFFF;
  1043 : FFFF;
  1044 : FFFF;
  1045 : FFFF;
  1046 : FFFF;
  1047 : FFFF;
  1048 : FFFF;
  1049 : FFFF;
  104A : FFFF;
  104B : FFFF;
  104C : FFFF;
  104D : FFFF;
  104E : FFFF;
  104F : FFFF;
  1050 : FFFF;
  1051 : FFFF;
  1052 : FFFF;
  1053 : FFFF;
  1054 : FFFF;
  1055 : FFFF;
  1056 : FFFF;
  1057 : FFFF;
  1058 : FFFF;
  1059 : FFFF;
  105A : FFFF;
  105B : FFFF;
  105C : FFFF;
  105D : FFFF;
  105E : FFFF;
  105F : F7DE;
  1060 : 624A;
  1061 : 51A8;
  1062 : 51A9;
  1063 : 41E9;
  1064 : 51C9;
  1065 : C5D8;
  1066 : FFDF;
  1067 : FFDF;
  1068 : FD29;
  1069 : FCE7;
  106A : FCE8;
  106B : FCE8;
  106C : FCE8;
  106D : FD08;
  106E : F508;
  106F : FD08;
  1070 : FCE8;
  1071 : FCE8;
  1072 : FCE8;
  1073 : FCE8;
  1074 : FCE8;
  1075 : FCE8;
  1076 : FCE8;
  1077 : FCE8;
  1078 : F4E8;
  1079 : FCE8;
  107A : EDEF;
  107B : FFFF;
  107C : FFDF;
  107D : 8BD0;
  107E : 51C8;
  107F : 51E9;
  1080 : 4D76;
  1081 : 8EBB;
  1082 : 4E19;
  1083 : 4E19;
  1084 : 4E19;
  1085 : 4E19;
  1086 : 4E19;
  1087 : 4E19;
  1088 : 4E19;
  1089 : 4E19;
  108A : 4E19;
  108B : 4E19;
  108C : 4E19;
  108D : 4E19;
  108E : 4E19;
  108F : 8EBB;
  1090 : 5209;
  1091 : 51C9;
  1092 : 83B0;
  1093 : F7DE;
  1094 : F7DE;
  1095 : F611;
  1096 : FCE9;
  1097 : FCE9;
  1098 : FD08;
  1099 : FD08;
  109A : FD08;
  109B : FD08;
  109C : FD08;
  109D : FCE8;
  109E : FD08;
  109F : F4E8;
  10A0 : E303;
  10A1 : DB02;
  10A2 : E3A4;
  10A3 : FCE8;
  10A4 : FD08;
  10A5 : FD08;
  10A6 : FD08;
  10A7 : FD08;
  10A8 : F509;
  10A9 : FD09;
  10AA : FCE9;
  10AB : FD09;
  10AC : FCE9;
  10AD : F6F7;
  10AE : FFFE;
  10AF : FFFE;
  10B0 : FFFF;
  10B1 : E7BE;
  10B2 : FFFF;
  10B3 : F7FF;
  10B4 : F7FF;
  10B5 : F7FF;
  10B6 : F7FF;
  10B7 : F7FF;
  10B8 : F7FF;
  10B9 : F7FF;
  10BA : FFFF;
  10BB : FFFF;
  10BC : FFFF;
  10BD : F7DF;
  10BE : EFDE;
  10BF : EFBE;
  10C0 : EFBE;
  10C1 : EFBE;
  10C2 : EFBE;
  10C3 : EFBE;
  10C4 : EFBE;
  10C5 : EFBE;
  10C6 : EFDE;
  10C7 : EFDE;
  10C8 : F7DE;
  10C9 : F7DE;
  10CA : FFFF;
  10CB : FFFE;
  10CC : FFFE;
  10CD : EE10;
  10CE : FCE8;
  10CF : FCE8;
  10D0 : FCE8;
  10D1 : FCE8;
  10D2 : FCE8;
  10D3 : FCE8;
  10D4 : FCE8;
  10D5 : FCE8;
  10D6 : FCE8;
  10D7 : FD08;
  10D8 : FCE8;
  10D9 : F508;
  10DA : FD08;
  10DB : FCE8;
  10DC : FD08;
  10DD : FCE8;
  10DE : FCC8;
  10DF : FD08;
  10E0 : FFFE;
  10E1 : FFFE;
  10E2 : FFFE;
  10E3 : 5A0A;
  10E4 : 51A9;
  10E5 : 51A8;
  10E6 : 5188;
  10E7 : 59E9;
  10E8 : FFFF;
  10E9 : FFFE;
  10EA : FFFE;
  10EB : FFFF;
  10EC : FFFF;
  10ED : FFFF;
  10EE : FFFF;
  10EF : FFFF;
  10F0 : FFFF;
  10F1 : FFFF;
  10F2 : FFFF;
  10F3 : FFFF;
  10F4 : FFFF;
  10F5 : FFFF;
  10F6 : FFFF;
  10F7 : FFFF;
  10F8 : FFFF;
  10F9 : FFFF;
  10FA : FFFF;
  10FB : FFFE;
  10FC : FFFE;
  10FD : 8BF0;
  10FE : 51E9;
  10FF : 51E9;
  1100 : 5208;
  1101 : 51C8;
  1102 : 838F;
  1103 : FFDE;
  1104 : FFFF;
  1105 : EE11;
  1106 : FD08;
  1107 : FD08;
  1108 : FD08;
  1109 : FD08;
  110A : FD08;
  110B : FD08;
  110C : FD08;
  110D : FCE8;
  110E : FCE8;
  110F : FCE8;
  1110 : E3E8;
  1111 : E3E8;
  1112 : E3C7;
  1113 : E3E8;
  1114 : E3C7;
  1115 : E3E8;
  1116 : E3E7;
  1117 : E3E7;
  1118 : E3C7;
  1119 : E3E8;
  111A : E3C7;
  111B : E3C7;
  111C : E3E7;
  111D : EE97;
  111E : FFFF;
  111F : F7BE;
  1120 : 734D;
  1121 : 6B0C;
  1122 : 9C52;
  1123 : FFDF;
  1124 : FFFF;
  1125 : FFBC;
  1126 : FF7B;
  1127 : FF7B;
  1128 : FF7B;
  1129 : FF7B;
  112A : FF7B;
  112B : FF7B;
  112C : FF7B;
  112D : FF7B;
  112E : FF7B;
  112F : FF7B;
  1130 : FF7B;
  1131 : FF7B;
  1132 : FF7B;
  1133 : FF7B;
  1134 : FF7B;
  1135 : FF7B;
  1136 : FF7B;
  1137 : FF9B;
  1138 : FFFF;
  1139 : FFFF;
  113A : FFDE;
  113B : FF7B;
  113C : FF7B;
  113D : FF7B;
  113E : FF7B;
  113F : FF7B;
  1140 : FF7B;
  1141 : FF7B;
  1142 : FF7B;
  1143 : FF7B;
  1144 : FF7B;
  1145 : FF7B;
  1146 : FF7B;
  1147 : FF7B;
  1148 : FF7B;
  1149 : FF7B;
  114A : FF7B;
  114B : FF7B;
  114C : FF7B;
  114D : FF7B;
  114E : FF7B;
  114F : FF7B;
  1150 : FF7B;
  1151 : FF7B;
  1152 : FF7B;
  1153 : FF7B;
  1154 : FF7B;
  1155 : FF7B;
  1156 : FF7B;
  1157 : FF7B;
  1158 : FF7B;
  1159 : FF7B;
  115A : FF7B;
  115B : FF7B;
  115C : FF7B;
  115D : FFDE;
  115E : FFFF;
  115F : F7BE;
  1160 : 7B4D;
  1161 : 72CC;
  1162 : 72AC;
  1163 : 62EC;
  1164 : 72CC;
  1165 : CE39;
  1166 : FFDF;
  1167 : FFFE;
  1168 : F54A;
  1169 : FCE9;
  116A : FCE9;
  116B : F509;
  116C : FCE8;
  116D : FCE9;
  116E : F50A;
  116F : FD08;
  1170 : FD08;
  1171 : FD08;
  1172 : FD08;
  1173 : FD08;
  1174 : FD08;
  1175 : FD08;
  1176 : FCE8;
  1177 : FD08;
  1178 : F4E8;
  1179 : FCE7;
  117A : F5EF;
  117B : F7FF;
  117C : FFDF;
  117D : A492;
  117E : 72EC;
  117F : 6AED;
  1180 : 4CD4;
  1181 : 8EBB;
  1182 : 5619;
  1183 : 4E19;
  1184 : 4E19;
  1185 : 4E19;
  1186 : 4E19;
  1187 : 4E19;
  1188 : 4E19;
  1189 : 4E19;
  118A : 4E19;
  118B : 4E19;
  118C : 4E19;
  118D : 4E19;
  118E : 4E19;
  118F : 8EBB;
  1190 : 5208;
  1191 : 51C8;
  1192 : 838F;
  1193 : F7DE;
  1194 : F7DE;
  1195 : F611;
  1196 : FD08;
  1197 : F508;
  1198 : FD08;
  1199 : FD08;
  119A : FD08;
  119B : FD08;
  119C : FD08;
  119D : FCE8;
  119E : FCE8;
  119F : FCE8;
  11A0 : EBE8;
  11A1 : E3E7;
  11A2 : EC48;
  11A3 : FCE8;
  11A4 : FD08;
  11A5 : FD08;
  11A6 : FD08;
  11A7 : FCE8;
  11A8 : FD08;
  11A9 : FD08;
  11AA : FD08;
  11AB : FCE8;
  11AC : FCE8;
  11AD : F6F7;
  11AE : FFFE;
  11AF : FFFE;
  11B0 : D75C;
  11B1 : D75B;
  11B2 : D75B;
  11B3 : D73B;
  11B4 : D75B;
  11B5 : D75B;
  11B6 : D75B;
  11B7 : D75B;
  11B8 : D75B;
  11B9 : D75B;
  11BA : E79D;
  11BB : F7DE;
  11BC : FFFE;
  11BD : BF3C;
  11BE : CF3B;
  11BF : D75C;
  11C0 : D75C;
  11C1 : D75C;
  11C2 : DF5C;
  11C3 : D75C;
  11C4 : D75C;
  11C5 : D75C;
  11C6 : D75C;
  11C7 : D75C;
  11C8 : D79D;
  11C9 : F7DE;
  11CA : FFFE;
  11CB : FFFE;
  11CC : FFFE;
  11CD : F610;
  11CE : FCE8;
  11CF : FCE8;
  11D0 : FD08;
  11D1 : FCE8;
  11D2 : FD08;
  11D3 : FD08;
  11D4 : FD08;
  11D5 : FD08;
  11D6 : FD08;
  11D7 : FD08;
  11D8 : FCE9;
  11D9 : F509;
  11DA : FCE8;
  11DB : FCE8;
  11DC : F509;
  11DD : FD09;
  11DE : FCE9;
  11DF : F52A;
  11E0 : FFFE;
  11E1 : FFFE;
  11E2 : FFFE;
  11E3 : 9BF0;
  11E4 : 72CC;
  11E5 : 72EC;
  11E6 : 72EC;
  11E7 : 732D;
  11E8 : FFFE;
  11E9 : FFFE;
  11EA : FFFE;
  11EB : FFDD;
  11EC : FFDD;
  11ED : FFDD;
  11EE : FFDD;
  11EF : FFDD;
  11F0 : FFDD;
  11F1 : FFDD;
  11F2 : FFDD;
  11F3 : FFDD;
  11F4 : FFDD;
  11F5 : FFDD;
  11F6 : FFDD;
  11F7 : FFDD;
  11F8 : FFDD;
  11F9 : FFDD;
  11FA : FFDD;
  11FB : FFFE;
  11FC : FFFE;
  11FD : 8BF0;
  11FE : 51E9;
  11FF : 51E9;
  1200 : 4A09;
  1201 : 51C8;
  1202 : 8BAF;
  1203 : FFDF;
  1204 : FFFF;
  1205 : F5F0;
  1206 : FD08;
  1207 : FCE8;
  1208 : FD08;
  1209 : FD08;
  120A : FD08;
  120B : FD08;
  120C : FCE8;
  120D : FCE8;
  120E : FCE8;
  120F : FD29;
  1210 : FF3A;
  1211 : F77C;
  1212 : FF5B;
  1213 : F77C;
  1214 : FF5A;
  1215 : F77C;
  1216 : FF7C;
  1217 : FF7B;
  1218 : FF7B;
  1219 : F77C;
  121A : F77C;
  121B : FF7B;
  121C : F77C;
  121D : FFDE;
  121E : FFFF;
  121F : FFFF;
  1220 : EF7C;
  1221 : EF5D;
  1222 : EF7E;
  1223 : FFFF;
  1224 : FFFF;
  1225 : F632;
  1226 : FD4A;
  1227 : F56B;
  1228 : FD4B;
  1229 : FD4B;
  122A : FD4B;
  122B : FD4B;
  122C : FD4B;
  122D : FD4B;
  122E : FD4B;
  122F : FD4B;
  1230 : FD4B;
  1231 : FD4B;
  1232 : FD4B;
  1233 : FD4B;
  1234 : FD4B;
  1235 : FD4B;
  1236 : FD4C;
  1237 : FD6C;
  1238 : FFBE;
  1239 : F7FF;
  123A : F739;
  123B : FD4B;
  123C : FD4B;
  123D : FD4B;
  123E : FD4B;
  123F : F54B;
  1240 : FD4B;
  1241 : FD4B;
  1242 : FD4B;
  1243 : FD4B;
  1244 : FD4B;
  1245 : FD4B;
  1246 : FD4B;
  1247 : FD4B;
  1248 : FD4B;
  1249 : FD4B;
  124A : FD4B;
  124B : FD4B;
  124C : FD4B;
  124D : FD4B;
  124E : FD4B;
  124F : FD4B;
  1250 : FD4B;
  1251 : FD4B;
  1252 : FD4B;
  1253 : FD4B;
  1254 : FD4B;
  1255 : FD4B;
  1256 : FD4B;
  1257 : FD4B;
  1258 : FD4C;
  1259 : F54B;
  125A : F56B;
  125B : FD4A;
  125C : F54C;
  125D : F718;
  125E : FFFF;
  125F : FFDF;
  1260 : EF5D;
  1261 : EF5C;
  1262 : E75D;
  1263 : EF5D;
  1264 : EF5D;
  1265 : FFBE;
  1266 : FFFF;
  1267 : FFDE;
  1268 : FD4A;
  1269 : F509;
  126A : FD08;
  126B : FCE8;
  126C : FCE8;
  126D : FD08;
  126E : FD08;
  126F : FD08;
  1270 : FD08;
  1271 : FD08;
  1272 : FD08;
  1273 : FD08;
  1274 : FD08;
  1275 : FD08;
  1276 : FD08;
  1277 : FD08;
  1278 : FD08;
  1279 : FCE8;
  127A : F5D0;
  127B : FFFF;
  127C : FFFF;
  127D : F77E;
  127E : EF5D;
  127F : E71B;
  1280 : 628B;
  1281 : AF1C;
  1282 : 767A;
  1283 : 4E19;
  1284 : 4E19;
  1285 : 4E19;
  1286 : 4E19;
  1287 : 4E19;
  1288 : 4E19;
  1289 : 4E19;
  128A : 4E19;
  128B : 4E19;
  128C : 4E19;
  128D : 4E19;
  128E : 4E19;
  128F : 8EBB;
  1290 : 5209;
  1291 : 51C8;
  1292 : 83AF;
  1293 : F7DE;
  1294 : F7DE;
  1295 : F610;
  1296 : FD08;
  1297 : FD08;
  1298 : FD08;
  1299 : FD08;
  129A : FD08;
  129B : FD08;
  129C : FCE8;
  129D : FCE8;
  129E : FCE8;
  129F : FD29;
  12A0 : FF9C;
  12A1 : FFDE;
  12A2 : F6B6;
  12A3 : FD09;
  12A4 : FD08;
  12A5 : FD08;
  12A6 : FD08;
  12A7 : FCE8;
  12A8 : FD08;
  12A9 : FD08;
  12AA : FD08;
  12AB : FD08;
  12AC : FD08;
  12AD : F6F7;
  12AE : FFFE;
  12AF : DF9D;
  12B0 : FD8D;
  12B1 : F54C;
  12B2 : F54B;
  12B3 : F54B;
  12B4 : F54B;
  12B5 : F54B;
  12B6 : F54B;
  12B7 : F54B;
  12B8 : F54B;
  12B9 : FD4B;
  12BA : F611;
  12BB : E7BE;
  12BC : FFFE;
  12BD : F652;
  12BE : FD6B;
  12BF : FD6C;
  12C0 : F56C;
  12C1 : F56C;
  12C2 : F56C;
  12C3 : F56C;
  12C4 : F56C;
  12C5 : F54C;
  12C6 : F54C;
  12C7 : F58D;
  12C8 : DF9D;
  12C9 : F7DE;
  12CA : F7FE;
  12CB : FFFE;
  12CC : FFFE;
  12CD : F610;
  12CE : FCE8;
  12CF : FD08;
  12D0 : FD08;
  12D1 : FD08;
  12D2 : FD08;
  12D3 : FD08;
  12D4 : FD08;
  12D5 : FD08;
  12D6 : FCE8;
  12D7 : FCE8;
  12D8 : FD08;
  12D9 : FD08;
  12DA : FD08;
  12DB : FD08;
  12DC : FCE8;
  12DD : FD08;
  12DE : FD09;
  12DF : FD09;
  12E0 : FFFE;
  12E1 : FFFE;
  12E2 : FFFE;
  12E3 : FFFE;
  12E4 : FFFE;
  12E5 : FFFE;
  12E6 : FFFE;
  12E7 : FFFE;
  12E8 : FFFE;
  12E9 : FFFE;
  12EA : FFFE;
  12EB : FDF0;
  12EC : FD4A;
  12ED : F56C;
  12EE : F56C;
  12EF : FD4B;
  12F0 : FD4B;
  12F1 : FD4B;
  12F2 : FD4B;
  12F3 : FD4B;
  12F4 : FD4B;
  12F5 : FD4B;
  12F6 : FD4B;
  12F7 : FD4B;
  12F8 : FD4B;
  12F9 : FD6B;
  12FA : F611;
  12FB : FFFE;
  12FC : FFFE;
  12FD : 8BF0;
  12FE : 51C9;
  12FF : 51E9;
  1300 : 4A09;
  1301 : 51C8;
  1302 : 838F;
  1303 : FFDF;
  1304 : FFFF;
  1305 : F5F0;
  1306 : FCE8;
  1307 : FCE8;
  1308 : FCE8;
  1309 : FD08;
  130A : FD08;
  130B : FD08;
  130C : FCE8;
  130D : FCE8;
  130E : FCE8;
  130F : FD29;
  1310 : FFBD;
  1311 : FFFF;
  1312 : FFFF;
  1313 : FFFF;
  1314 : FFDE;
  1315 : FFFF;
  1316 : FFFF;
  1317 : FFFF;
  1318 : FFFF;
  1319 : FFFF;
  131A : FFFF;
  131B : FFFF;
  131C : FFFF;
  131D : FFFF;
  131E : FFFF;
  131F : FFFF;
  1320 : FFDE;
  1321 : FFFF;
  1322 : FFFF;
  1323 : FFFF;
  1324 : FFFF;
  1325 : EE10;
  1326 : FD08;
  1327 : FD09;
  1328 : F508;
  1329 : F508;
  132A : F508;
  132B : F508;
  132C : F508;
  132D : F508;
  132E : F508;
  132F : F508;
  1330 : F508;
  1331 : F508;
  1332 : F508;
  1333 : F508;
  1334 : F508;
  1335 : F508;
  1336 : F509;
  1337 : F52A;
  1338 : FFBD;
  1339 : FFFF;
  133A : F718;
  133B : FD09;
  133C : FCE9;
  133D : FD09;
  133E : F509;
  133F : F509;
  1340 : F508;
  1341 : F508;
  1342 : F508;
  1343 : F508;
  1344 : F508;
  1345 : F508;
  1346 : F508;
  1347 : F508;
  1348 : F508;
  1349 : F508;
  134A : F508;
  134B : F508;
  134C : F508;
  134D : F508;
  134E : F508;
  134F : F508;
  1350 : F508;
  1351 : F508;
  1352 : F508;
  1353 : F508;
  1354 : F508;
  1355 : F508;
  1356 : F508;
  1357 : F508;
  1358 : FCE8;
  1359 : FCE8;
  135A : FCE8;
  135B : FCE7;
  135C : F509;
  135D : F716;
  135E : FFFF;
  135F : FFFF;
  1360 : FFFF;
  1361 : FFFE;
  1362 : F7FF;
  1363 : FFFF;
  1364 : FFFF;
  1365 : FFFF;
  1366 : FFFF;
  1367 : F7FF;
  1368 : FD2A;
  1369 : FD08;
  136A : FD08;
  136B : FCE8;
  136C : FCE8;
  136D : FCE8;
  136E : FD08;
  136F : FD08;
  1370 : FCE8;
  1371 : FCE8;
  1372 : FCE8;
  1373 : FCE8;
  1374 : FCE8;
  1375 : FCE8;
  1376 : FCE8;
  1377 : FCE8;
  1378 : F508;
  1379 : FD08;
  137A : EDF0;
  137B : FFFF;
  137C : FFFF;
  137D : FFFF;
  137E : FFFF;
  137F : F79E;
  1380 : 5A4B;
  1381 : 9CB3;
  1382 : BE5A;
  1383 : 4E19;
  1384 : 4E19;
  1385 : 4E19;
  1386 : 4E19;
  1387 : 4E19;
  1388 : 4E19;
  1389 : 4E19;
  138A : 4E19;
  138B : 4E19;
  138C : 4E19;
  138D : 4E19;
  138E : 4E19;
  138F : 8EBB;
  1390 : 4A09;
  1391 : 51C8;
  1392 : 838F;
  1393 : F7DE;
  1394 : F7DE;
  1395 : F610;
  1396 : FCE8;
  1397 : F4E8;
  1398 : FCE8;
  1399 : FD08;
  139A : FD08;
  139B : FD08;
  139C : FCE8;
  139D : FCE8;
  139E : FCE8;
  139F : FD29;
  13A0 : FFFE;
  13A1 : FFFF;
  13A2 : F738;
  13A3 : FD09;
  13A4 : FD08;
  13A5 : FD08;
  13A6 : FD08;
  13A7 : FD08;
  13A8 : FD08;
  13A9 : FD08;
  13AA : FCE8;
  13AB : FCE8;
  13AC : FD08;
  13AD : F6F7;
  13AE : FFFE;
  13AF : D79D;
  13B0 : F54A;
  13B1 : F509;
  13B2 : F508;
  13B3 : F508;
  13B4 : F508;
  13B5 : F509;
  13B6 : F508;
  13B7 : F508;
  13B8 : F509;
  13B9 : FD08;
  13BA : F5CF;
  13BB : E7BE;
  13BC : FFFE;
  13BD : F610;
  13BE : FD09;
  13BF : FCE9;
  13C0 : F508;
  13C1 : F508;
  13C2 : F508;
  13C3 : F508;
  13C4 : F508;
  13C5 : F508;
  13C6 : F509;
  13C7 : F54A;
  13C8 : DF7D;
  13C9 : F7DE;
  13CA : F7FE;
  13CB : C75D;
  13CC : A6FC;
  13CD : EE10;
  13CE : FD08;
  13CF : FCE9;
  13D0 : FD08;
  13D1 : FD08;
  13D2 : FCE8;
  13D3 : FCE8;
  13D4 : FCE8;
  13D5 : FD08;
  13D6 : FD08;
  13D7 : FD08;
  13D8 : FD08;
  13D9 : FD08;
  13DA : FCE8;
  13DB : FCE8;
  13DC : FCE8;
  13DD : FD08;
  13DE : FCE8;
  13DF : FD29;
  13E0 : F7FF;
  13E1 : EFDE;
  13E2 : FFFF;
  13E3 : FFFF;
  13E4 : FFFF;
  13E5 : FFFF;
  13E6 : FFFF;
  13E7 : FFFF;
  13E8 : FFFE;
  13E9 : FFFE;
  13EA : FFFF;
  13EB : F52A;
  13EC : FCE7;
  13ED : FD09;
  13EE : FD08;
  13EF : FCE8;
  13F0 : F508;
  13F1 : F508;
  13F2 : F508;
  13F3 : F508;
  13F4 : F508;
  13F5 : F508;
  13F6 : F508;
  13F7 : F508;
  13F8 : F509;
  13F9 : F509;
  13FA : F5CF;
  13FB : FFFE;
  13FC : FFFE;
  13FD : 8BF0;
  13FE : 51C9;
  13FF : 51E8;
  1400 : 4A09;
  1401 : 51C8;
  1402 : 8BAF;
  1403 : FFDF;
  1404 : FFFF;
  1405 : F5F0;
  1406 : FD08;
  1407 : FCE8;
  1408 : FD08;
  1409 : FD08;
  140A : FD08;
  140B : FD08;
  140C : FCE8;
  140D : FCE8;
  140E : FD09;
  140F : FD29;
  1410 : FFDD;
  1411 : FFFF;
  1412 : FFFF;
  1413 : FFFF;
  1414 : FFFF;
  1415 : FFFF;
  1416 : FFFF;
  1417 : FFFF;
  1418 : FFFF;
  1419 : FFFF;
  141A : FFFF;
  141B : FFFF;
  141C : FFFF;
  141D : FFFF;
  141E : FFFF;
  141F : FFFF;
  1420 : FFFF;
  1421 : FFFF;
  1422 : FFDD;
  1423 : FF19;
  1424 : FF39;
  1425 : F5CE;
  1426 : FD08;
  1427 : F4E9;
  1428 : FD08;
  1429 : FD08;
  142A : FD08;
  142B : FD08;
  142C : FD08;
  142D : FD08;
  142E : FD08;
  142F : FD08;
  1430 : FD08;
  1431 : FD08;
  1432 : FD08;
  1433 : FD08;
  1434 : FCE7;
  1435 : FD08;
  1436 : F508;
  1437 : FD29;
  1438 : FFBD;
  1439 : FFFF;
  143A : F718;
  143B : FD09;
  143C : FCE8;
  143D : FCE8;
  143E : FD08;
  143F : FCE8;
  1440 : FD08;
  1441 : FD08;
  1442 : FD08;
  1443 : FD08;
  1444 : FD08;
  1445 : FD08;
  1446 : FD08;
  1447 : FD08;
  1448 : FD08;
  1449 : FD08;
  144A : FD08;
  144B : FD08;
  144C : FD08;
  144D : FD08;
  144E : FD08;
  144F : FD08;
  1450 : FD08;
  1451 : FD08;
  1452 : FD08;
  1453 : FD08;
  1454 : FD08;
  1455 : FD08;
  1456 : FD08;
  1457 : FD08;
  1458 : FCE8;
  1459 : FCE8;
  145A : FD08;
  145B : FCE8;
  145C : F4E9;
  145D : F673;
  145E : F73A;
  145F : F73A;
  1460 : FFFF;
  1461 : FFFF;
  1462 : FFFF;
  1463 : FFFF;
  1464 : FFFF;
  1465 : FF7B;
  1466 : F759;
  1467 : F718;
  1468 : FD29;
  1469 : FD08;
  146A : FD08;
  146B : FCE8;
  146C : FD08;
  146D : FD08;
  146E : FD08;
  146F : FD08;
  1470 : FD08;
  1471 : FD08;
  1472 : FD08;
  1473 : FD08;
  1474 : FD08;
  1475 : FD08;
  1476 : FD08;
  1477 : FD08;
  1478 : FD08;
  1479 : FD08;
  147A : F5AE;
  147B : FF39;
  147C : FF39;
  147D : FFBD;
  147E : FFFF;
  147F : F79E;
  1480 : 622B;
  1481 : 5A29;
  1482 : 9D35;
  1483 : 7E9B;
  1484 : 4E19;
  1485 : 4E19;
  1486 : 4E19;
  1487 : 4E19;
  1488 : 4E19;
  1489 : 4E19;
  148A : 4E19;
  148B : 4E19;
  148C : 4E19;
  148D : 4E19;
  148E : 4E19;
  148F : 8EBB;
  1490 : 5209;
  1491 : 51C8;
  1492 : 83AF;
  1493 : F7DE;
  1494 : F7DE;
  1495 : F610;
  1496 : FD08;
  1497 : FD08;
  1498 : FD08;
  1499 : FD08;
  149A : FD08;
  149B : FD08;
  149C : FCE8;
  149D : FCE8;
  149E : FD09;
  149F : FD29;
  14A0 : FFFE;
  14A1 : FFFE;
  14A2 : F77A;
  14A3 : FD09;
  14A4 : FD08;
  14A5 : FD08;
  14A6 : FD08;
  14A7 : FD08;
  14A8 : FD08;
  14A9 : FD08;
  14AA : FD08;
  14AB : FD08;
  14AC : FD08;
  14AD : F6F7;
  14AE : FFFE;
  14AF : D79D;
  14B0 : FD49;
  14B1 : FD08;
  14B2 : FCE8;
  14B3 : FD08;
  14B4 : FD08;
  14B5 : FD08;
  14B6 : FD08;
  14B7 : FD08;
  14B8 : FD08;
  14B9 : FCE8;
  14BA : F5CF;
  14BB : E7BE;
  14BC : FFFE;
  14BD : F610;
  14BE : FD08;
  14BF : FCE8;
  14C0 : FD08;
  14C1 : FD08;
  14C2 : FD08;
  14C3 : FD08;
  14C4 : FCE7;
  14C5 : FD08;
  14C6 : F508;
  14C7 : FD29;
  14C8 : DF7D;
  14C9 : F7DE;
  14CA : EFBE;
  14CB : EF3A;
  14CC : E6F9;
  14CD : F5CE;
  14CE : FCE8;
  14CF : FCE9;
  14D0 : FD08;
  14D1 : FD08;
  14D2 : FD08;
  14D3 : FD08;
  14D4 : FD08;
  14D5 : FD08;
  14D6 : FD08;
  14D7 : FD08;
  14D8 : FD08;
  14D9 : FD08;
  14DA : FD08;
  14DB : FD08;
  14DC : FCE8;
  14DD : FD08;
  14DE : FCE8;
  14DF : FD09;
  14E0 : F718;
  14E1 : F739;
  14E2 : FFFE;
  14E3 : FFFE;
  14E4 : FFFE;
  14E5 : FFFE;
  14E6 : FFFE;
  14E7 : FFFE;
  14E8 : FFFF;
  14E9 : FFFF;
  14EA : FEF8;
  14EB : F4EA;
  14EC : FCE8;
  14ED : FCE9;
  14EE : FD08;
  14EF : F508;
  14F0 : FD08;
  14F1 : FD08;
  14F2 : FD08;
  14F3 : FD08;
  14F4 : FD08;
  14F5 : FD08;
  14F6 : FD08;
  14F7 : FD08;
  14F8 : FCE9;
  14F9 : F508;
  14FA : F5CF;
  14FB : FFFE;
  14FC : FFFE;
  14FD : 8BEF;
  14FE : 51C9;
  14FF : 51E9;
  1500 : 4A09;
  1501 : 51C8;
  1502 : 8BAF;
  1503 : FFDF;
  1504 : FFFF;
  1505 : F5F0;
  1506 : FCE8;
  1507 : FCE8;
  1508 : FCE8;
  1509 : FD08;
  150A : FD08;
  150B : FD08;
  150C : FCE8;
  150D : FCE8;
  150E : FCE8;
  150F : FD29;
  1510 : FFBD;
  1511 : FFFF;
  1512 : FFFF;
  1513 : FFFF;
  1514 : FFFF;
  1515 : FFFF;
  1516 : FFFF;
  1517 : FFFF;
  1518 : FFFF;
  1519 : FFFF;
  151A : FFFF;
  151B : FFFF;
  151C : FFFF;
  151D : FFFF;
  151E : FFFF;
  151F : FFFF;
  1520 : FFFF;
  1521 : FFFF;
  1522 : F759;
  1523 : F5AD;
  1524 : F58C;
  1525 : FD29;
  1526 : FCE8;
  1527 : F509;
  1528 : FCE8;
  1529 : FCE8;
  152A : FCE8;
  152B : FCE8;
  152C : FCE8;
  152D : FCE8;
  152E : FCE8;
  152F : FCE8;
  1530 : FCE8;
  1531 : FD08;
  1532 : FCE8;
  1533 : FD08;
  1534 : FCE8;
  1535 : FCE8;
  1536 : FD08;
  1537 : FD29;
  1538 : FFBD;
  1539 : FFFF;
  153A : F718;
  153B : FD09;
  153C : FCE8;
  153D : FCE8;
  153E : FCE8;
  153F : FCE8;
  1540 : FCE8;
  1541 : FCE8;
  1542 : FCE8;
  1543 : FCE8;
  1544 : FCE8;
  1545 : FCE8;
  1546 : FCE8;
  1547 : FCE8;
  1548 : FCE8;
  1549 : FCE8;
  154A : FCE8;
  154B : FCE8;
  154C : FCE8;
  154D : FCE8;
  154E : FCE8;
  154F : FCE8;
  1550 : FCE8;
  1551 : FCE8;
  1552 : FCE8;
  1553 : FCE8;
  1554 : FCE8;
  1555 : FCE8;
  1556 : FCE8;
  1557 : FCE8;
  1558 : FCE8;
  1559 : FCE8;
  155A : FCE8;
  155B : FCE8;
  155C : FCE8;
  155D : F54B;
  155E : F58D;
  155F : FDAD;
  1560 : FFDE;
  1561 : FFFE;
  1562 : F7FF;
  1563 : FFFF;
  1564 : FFFE;
  1565 : F673;
  1566 : F58C;
  1567 : FD6B;
  1568 : FD09;
  1569 : FD08;
  156A : FD08;
  156B : FCE8;
  156C : FCE8;
  156D : FCE8;
  156E : FD08;
  156F : FD08;
  1570 : FCE8;
  1571 : FCE8;
  1572 : FCE8;
  1573 : FCE8;
  1574 : FCE8;
  1575 : FCE8;
  1576 : FCE8;
  1577 : FCE8;
  1578 : F508;
  1579 : FD08;
  157A : FD09;
  157B : FD8C;
  157C : FD8C;
  157D : F738;
  157E : FFFF;
  157F : F7BE;
  1580 : 622A;
  1581 : 49A8;
  1582 : 9CF5;
  1583 : 8EBB;
  1584 : 4E19;
  1585 : 4E19;
  1586 : 4E19;
  1587 : 4E19;
  1588 : 4E19;
  1589 : 4E19;
  158A : 4E19;
  158B : 4E19;
  158C : 4E19;
  158D : 4E19;
  158E : 4E19;
  158F : 8EBB;
  1590 : 4A09;
  1591 : 51C8;
  1592 : 838F;
  1593 : F7DE;
  1594 : F7DE;
  1595 : F610;
  1596 : FCE8;
  1597 : F4E8;
  1598 : FCE8;
  1599 : FD08;
  159A : FD08;
  159B : FD08;
  159C : FCE8;
  159D : FCE8;
  159E : FCE8;
  159F : FD29;
  15A0 : FFFE;
  15A1 : FFFE;
  15A2 : FF9B;
  15A3 : FD09;
  15A4 : FD08;
  15A5 : FCE8;
  15A6 : FD08;
  15A7 : FD08;
  15A8 : FD08;
  15A9 : FD08;
  15AA : FCE8;
  15AB : FCE8;
  15AC : FD08;
  15AD : F6F7;
  15AE : FFFE;
  15AF : D79D;
  15B0 : FD2A;
  15B1 : FD08;
  15B2 : FCE8;
  15B3 : FCE8;
  15B4 : FD08;
  15B5 : FCE8;
  15B6 : FCE8;
  15B7 : FCE8;
  15B8 : FCE8;
  15B9 : FCE8;
  15BA : F5CF;
  15BB : E7BE;
  15BC : FFFE;
  15BD : F610;
  15BE : FD08;
  15BF : FCE8;
  15C0 : FCE8;
  15C1 : FD08;
  15C2 : FCE8;
  15C3 : FD08;
  15C4 : FCE8;
  15C5 : FCE8;
  15C6 : FD08;
  15C7 : FD2A;
  15C8 : D77D;
  15C9 : F7DE;
  15CA : E79D;
  15CB : FDCE;
  15CC : FD8C;
  15CD : FD29;
  15CE : FCE8;
  15CF : F508;
  15D0 : FD08;
  15D1 : FCE8;
  15D2 : FCE8;
  15D3 : FCE8;
  15D4 : FD08;
  15D5 : FD08;
  15D6 : FD08;
  15D7 : FD08;
  15D8 : FD08;
  15D9 : FCE8;
  15DA : FD08;
  15DB : FCE8;
  15DC : FD08;
  15DD : FD08;
  15DE : FD09;
  15DF : FD09;
  15E0 : FD6B;
  15E1 : F58C;
  15E2 : F673;
  15E3 : FFFE;
  15E4 : FFFE;
  15E5 : FFFE;
  15E6 : FFFE;
  15E7 : FFFE;
  15E8 : FE30;
  15E9 : F610;
  15EA : FD6B;
  15EB : FCE8;
  15EC : FCE8;
  15ED : FCE8;
  15EE : FCE8;
  15EF : FCE8;
  15F0 : FCE8;
  15F1 : FCE8;
[...]
  3ACC : B576;
  3ACD : E73C;
  3ACE : FFFF;
  3ACF : FFFF;
  3AD0 : FFFF;
  3AD1 : FFFF;
  3AD2 : F7DF;
  3AD3 : EFDF;
  3AD4 : EFDF;
  3AD5 : EFDF;
  3AD6 : EFDF;
  3AD7 : F7DF;
  3AD8 : EFBF;
  3AD9 : FFFF;
  3ADA : FFFF;
  3ADB : 51C9;
  3ADC : 51A8;
  3ADD : C75D;
  3ADE : 4E19;
  3ADF : 4E19;
  3AE0 : 4E19;
  3AE1 : 51C9;
  3AE2 : 838F;
  3AE3 : F7DF;
  3AE4 : FFFF;
  3AE5 : FFFF;
  3AE6 : FFFF;
  3AE7 : FFFF;
  3AE8 : FFFF;
  3AE9 : FFFF;
  3AEA : FFFF;
  3AEB : FFFF;
  3AEC : FFFF;
  3AED : FFFF;
  3AEE : FFFF;
  3AEF : FFFF;
  3AF0 : FFFF;
  3AF1 : FFFF;
  3AF2 : FFFF;
  3AF3 : 51C9;
  3AF4 : 51A8;
  3AF5 : C75D;
  3AF6 : 4E19;
  3AF7 : 4E19;
  3AF8 : 4E19;
  3AF9 : 4E19;
  3AFA : 4E19;
  3AFB : 4E19;
  3AFC : 4E19;
  3AFD : 4E19;
  3AFE : 4E19;
  3AFF : 4E19;
  3B00 : 4E19;
  3B01 : 4E19;
  3B02 : 4E19;
  3B03 : 4E19;
  3B04 : 9EFC;
  3B05 : BEBB;
  3B06 : 9515;
  3B07 : 9D35;
  3B08 : 9CB3;
  3B09 : A4B3;
  3B0A : A4B3;
  3B0B : ACB3;
  3B0C : A4B3;
  3B0D : A4B3;
  3B0E : A4B4;
  3B0F : A4B4;
  3B10 : A4B3;
  3B11 : A4B3;
  3B12 : A4B3;
  3B13 : A4B3;
  3B14 : A4B3;
  3B15 : A4B3;
  3B16 : A4B3;
  3B17 : A4B3;
  3B18 : 9CD3;
  3B19 : A4B3;
  3B1A : A4B3;
  3B1B : A4B3;
  3B1C : A4B3;
  3B1D : ACB3;
  3B1E : A4B3;
  3B1F : 9C93;
  3B20 : 5A09;
  3B21 : 51C8;
  3B22 : 6AAC;
  3B23 : A493;
  3B24 : A4B4;
  3B25 : A4B3;
  3B26 : A4D3;
  3B27 : A4D3;
  3B28 : A4B3;
  3B29 : A4B3;
  3B2A : A4B3;
  3B2B : A4B3;
  3B2C : A4B3;
  3B2D : A4B3;
  3B2E : A4B3;
  3B2F : A4B3;
  3B30 : A4B3;
  3B31 : A4B3;
  3B32 : A4B3;
  3B33 : A4B3;
  3B34 : A4B3;
  3B35 : A4B3;
  3B36 : A4B3;
  3B37 : A4B3;
  3B38 : A4D3;
  3B39 : A4B3;
  3B3A : A4B3;
  3B3B : A4B3;
  3B3C : 9CD3;
  3B3D : ACB3;
  3B3E : A4B3;
  3B3F : A4D4;
  3B40 : A4B4;
  3B41 : A4B3;
  3B42 : A4D3;
  3B43 : A4B3;
  3B44 : A4D3;
  3B45 : A4B3;
  3B46 : A4B3;
  3B47 : A4B3;
  3B48 : A4B3;
  3B49 : A4B3;
  3B4A : A4B3;
  3B4B : A4B3;
  3B4C : A4B3;
  3B4D : A4B3;
  3B4E : A4B3;
  3B4F : A4B3;
  3B50 : A4B4;
  3B51 : A4B3;
  3B52 : A4D3;
  3B53 : A4B3;
  3B54 : A4D3;
  3B55 : A4B3;
  3B56 : A4B3;
  3B57 : A4B3;
  3B58 : A4B3;
  3B59 : A4B3;
  3B5A : A4B3;
  3B5B : A4B3;
  3B5C : A4B3;
  3B5D : A4B3;
  3B5E : A4B3;
  3B5F : A4B3;
  3B60 : A4B3;
  3B61 : A4B3;
  3B62 : A4B4;
  3B63 : A4B3;
  3B64 : A4B4;
  3B65 : 6AAC;
  3B66 : 51A9;
  3B67 : 59C9;
  3B68 : 9C92;
  3B69 : A4D3;
  3B6A : A4B3;
  3B6B : ACB3;
  3B6C : A4B3;
  3B6D : A4B3;
  3B6E : A4B3;
  3B6F : A4B4;
  3B70 : A4B3;
  3B71 : A4B3;
  3B72 : A4B3;
  3B73 : A4B4;
  3B74 : 9CB3;
  3B75 : 72CC;
  3B76 : 51C9;
  3B77 : 51E9;
  3B78 : 8EBB;
  3B79 : 4E19;
  3B7A : 4E19;
  3B7B : 4E19;
  3B7C : 4E19;
  3B7D : 4E19;
  3B7E : 4E19;
  3B7F : 4E19;
  3B80 : 4E19;
  3B81 : 4E19;
  3B82 : 4E19;
  3B83 : 4E19;
  3B84 : 4E19;
  3B85 : 4E19;
  3B86 : 4E19;
  3B87 : 4E19;
  3B88 : 4E19;
  3B89 : 4E19;
  3B8A : 4E19;
  3B8B : 4E19;
  3B8C : 4E19;
  3B8D : 4E19;
  3B8E : 4E19;
  3B8F : 4E19;
  3B90 : 4E19;
  3B91 : 4E19;
  3B92 : 4E19;
  3B93 : 4E19;
  3B94 : 4E19;
  3B95 : 4DB8;
  3B96 : 4C12;
  3B97 : 4AAD;
  3B98 : 5B4F;
  3B99 : 7CB3;
  3B9A : 9596;
  3B9B : B638;
  3B9C : B659;
  3B9D : B659;
  3B9E : B659;
  3B9F : B659;
  3BA0 : B659;
  3BA1 : B659;
  3BA2 : B659;
  3BA3 : B639;
  3BA4 : B639;
  3BA5 : ADF8;
  3BA6 : A5D7;
  3BA7 : 9D76;
  3BA8 : A535;
  3BA9 : 9D35;
  3BAA : 8BD0;
  3BAB : 51C8;
  3BAC : 59C8;
  3BAD : 8BF0;
  3BAE : ADD7;
  3BAF : BE38;
  3BB0 : C638;
  3BB1 : B639;
  3BB2 : AE39;
  3BB3 : B639;
  3BB4 : B639;
  3BB5 : B639;
  3BB6 : B639;
  3BB7 : B639;
  3BB8 : AE39;
  3BB9 : B639;
  3BBA : AE38;
  3BBB : ADF8;
  3BBC : ADF7;
  3BBD : BDD6;
  3BBE : B555;
  3BBF : AD34;
  3BC0 : 538F;
  3BC1 : 9515;
  3BC2 : 9D97;
  3BC3 : BF1C;
  3BC4 : 767A;
  3BC5 : 4E19;
  3BC6 : 4E19;
  3BC7 : 4E19;
  3BC8 : 4E19;
  3BC9 : 4E19;
  3BCA : 4E19;
  3BCB : 4E19;
  3BCC : 9D96;
  3BCD : 8C52;
  3BCE : AD14;
  3BCF : AD34;
  3BD0 : AD34;
  3BD1 : AD34;
  3BD2 : AD34;
  3BD3 : AD34;
  3BD4 : AD34;
  3BD5 : AD34;
  3BD6 : AD34;
  3BD7 : AD34;
  3BD8 : AD34;
  3BD9 : AD34;
  3BDA : AD14;
  3BDB : 51C9;
  3BDC : 51A8;
  3BDD : C75D;
  3BDE : 4E19;
  3BDF : 4E19;
  3BE0 : 4E19;
  3BE1 : 51C9;
  3BE2 : 6AAC;
  3BE3 : A514;
  3BE4 : AD35;
  3BE5 : AD35;
  3BE6 : AD34;
  3BE7 : B514;
  3BE8 : AD34;
  3BE9 : AD34;
  3BEA : AD34;
  3BEB : AD34;
  3BEC : AD34;
  3BED : AD34;
  3BEE : AD34;
  3BEF : AD34;
  3BF0 : AD34;
  3BF1 : AD34;
  3BF2 : AD14;
  3BF3 : 51C9;
  3BF4 : 51A8;
  3BF5 : C75D;
  3BF6 : 4E19;
  3BF7 : 4E19;
  3BF8 : 4E19;
  3BF9 : 4E19;
  3BFA : 4E19;
  3BFB : 4E19;
  3BFC : 4E19;
  3BFD : 4E19;
  3BFE : 4E19;
  3BFF : 4E19;
  3C00 : 4E19;
  3C01 : 4E19;
  3C02 : 4E19;
  3C03 : 4E19;
  3C04 : 4E19;
  3C05 : 96DB;
  3C06 : 96DB;
  3C07 : DF9E;
  3C08 : 41C8;
  3C09 : 4166;
  3C0A : 4166;
  3C0B : 4946;
  3C0C : 4166;
  3C0D : 4946;
  3C0E : 4167;
  3C0F : 4947;
  3C10 : 4947;
  3C11 : 4947;
  3C12 : 4947;
  3C13 : 4947;
  3C14 : 4947;
  3C15 : 4947;
  3C16 : 4947;
  3C17 : 4947;
  3C18 : 4167;
  3C19 : 4147;
  3C1A : 4167;
  3C1B : 4946;
  3C1C : 4167;
  3C1D : 4946;
  3C1E : 4166;
  3C1F : 4167;
  3C20 : 51A7;
  3C21 : 51C8;
  3C22 : 51A8;
  3C23 : 4947;
  3C24 : 4967;
  3C25 : 4967;
  3C26 : 4967;
  3C27 : 4166;
  3C28 : 4947;
  3C29 : 4947;
  3C2A : 4947;
  3C2B : 4947;
  3C2C : 4947;
  3C2D : 4947;
  3C2E : 4947;
  3C2F : 4947;
  3C30 : 4947;
  3C31 : 4947;
  3C32 : 4947;
  3C33 : 4947;
  3C34 : 4947;
  3C35 : 4947;
  3C36 : 4947;
  3C37 : 4947;
  3C38 : 4186;
  3C39 : 4947;
  3C3A : 4967;
  3C3B : 4966;
  3C3C : 4166;
  3C3D : 4946;
  3C3E : 4167;
  3C3F : 4167;
  3C40 : 4167;
  3C41 : 4947;
  3C42 : 4167;
  3C43 : 4946;
  3C44 : 4166;
  3C45 : 4946;
  3C46 : 4167;
  3C47 : 4167;
  3C48 : 4947;
  3C49 : 4947;
  3C4A : 4947;
  3C4B : 4947;
  3C4C : 4947;
  3C4D : 4947;
  3C4E : 4947;
  3C4F : 4947;
  3C50 : 4167;
  3C51 : 4947;
  3C52 : 4167;
  3C53 : 4946;
  3C54 : 4166;
  3C55 : 4946;
  3C56 : 4167;
  3C57 : 4167;
  3C58 : 4947;
  3C59 : 4947;
  3C5A : 4947;
  3C5B : 4947;
  3C5C : 4947;
  3C5D : 4947;
  3C5E : 4947;
  3C5F : 4947;
  3C60 : 4947;
  3C61 : 4946;
  3C62 : 4167;
  3C63 : 4947;
  3C64 : 4148;
  3C65 : 5187;
  3C66 : 51A8;
  3C67 : 5988;
  3C68 : 4167;
  3C69 : 4967;
  3C6A : 4946;
  3C6B : 4966;
  3C6C : 4946;
  3C6D : 4966;
  3C6E : 4947;
  3C6F : 4947;
  3C70 : 4947;
  3C71 : 4167;
  3C72 : 4167;
  3C73 : 4947;
  3C74 : 3967;
  3C75 : 4987;
  3C76 : 51A8;
  3C77 : 59C8;
  3C78 : 8EBB;
  3C79 : 4E19;
  3C7A : 4E19;
  3C7B : 4E19;
  3C7C : 4E19;
  3C7D : 4E19;
  3C7E : 4E19;
  3C7F : 4E19;
  3C80 : 4E19;
  3C81 : 4E19;
  3C82 : 4E19;
  3C83 : 4E19;
  3C84 : 4E19;
  3C85 : 4E19;
  3C86 : 4E19;
  3C87 : 4E19;
  3C88 : 4E19;
  3C89 : 4E19;
  3C8A : 4E19;
  3C8B : 4E19;
  3C8C : 4E19;
  3C8D : 4E19;
  3C8E : 4E19;
  3C8F : 4E19;
  3C90 : 4E19;
  3C91 : 4E19;
  3C92 : 4E19;
  3C93 : 4E19;
  3C94 : 4E19;
  3C95 : 4DF9;
  3C96 : 4D97;
  3C97 : 4C12;
  3C98 : 5A4B;
  3C99 : 4188;
  3C9A : 4967;
  3C9B : 5187;
  3C9C : 49A7;
  3C9D : 51A7;
  3C9E : 49A8;
  3C9F : 51A8;
  3CA0 : 49A8;
  3CA1 : 51A8;
  3CA2 : 5188;
  3CA3 : 51A8;
  3CA4 : 4988;
  3CA5 : 4967;
  3CA6 : 4947;
  3CA7 : 4947;
  3CA8 : 4947;
  3CA9 : 4146;
  3CAA : 4967;
  3CAB : 59A8;
  3CAC : 59A8;
  3CAD : 4987;
  3CAE : 4167;
  3CAF : 4987;
  3CB0 : 4987;
  3CB1 : 4987;
  3CB2 : 4987;
  3CB3 : 4988;
  3CB4 : 4988;
  3CB5 : 4988;
  3CB6 : 4988;
  3CB7 : 4987;
  3CB8 : 4988;
  3CB9 : 5188;
  3CBA : 4987;
  3CBB : 5166;
  3CBC : 4166;
  3CBD : 4946;
  3CBE : 4166;
  3CBF : 4167;
  3CC0 : 4CD3;
  3CC1 : D79E;
  3CC2 : 869B;
  3CC3 : 7E9B;
  3CC4 : 5619;
  3CC5 : 4E19;
  3CC6 : 4E19;
  3CC7 : 4E19;
  3CC8 : 4E19;
  3CC9 : 4E19;
  3CCA : 4E19;
  3CCB : 4E19;
  3CCC : A69A;
  3CCD : 4A6C;
  3CCE : 4927;
  3CCF : 4146;
  3CD0 : 4146;
  3CD1 : 4147;
  3CD2 : 4147;
  3CD3 : 4147;
  3CD4 : 4147;
  3CD5 : 4147;
  3CD6 : 4147;
  3CD7 : 4946;
  3CD8 : 4947;
  3CD9 : 3946;
  3CDA : 4126;
  3CDB : 51A8;
  3CDC : 51A8;
  3CDD : C75D;
  3CDE : 4E19;
  3CDF : 4E19;
  3CE0 : 4E19;
  3CE1 : 51A8;
  3CE2 : 4988;
  3CE3 : 4147;
  3CE4 : 4927;
  3CE5 : 4147;
  3CE6 : 4147;
  3CE7 : 4926;
  3CE8 : 4147;
  3CE9 : 4147;
  3CEA : 4147;
  3CEB : 4147;
  3CEC : 4147;
  3CED : 4147;
  3CEE : 4147;
  3CEF : 4146;
  3CF0 : 4147;
  3CF1 : 4146;
  3CF2 : 4126;
  3CF3 : 59A8;
  3CF4 : 51A8;
  3CF5 : C75D;
  3CF6 : 4E19;
  3CF7 : 4E19;
  3CF8 : 4E19;
  3CF9 : 4E19;
  3CFA : 4E19;
  3CFB : 4E19;
  3CFC : 4E19;
  3CFD : 4E19;
  3CFE : 4E19;
  3CFF : 4E19;
  3D00 : 4E19;
  3D01 : 4E19;
  3D02 : 4E19;
  3D03 : 4E19;
  3D04 : 4E19;
  3D05 : 4E19;
  3D06 : 4E19;
  3D07 : C75D;
  3D08 : 420A;
  3D09 : 49E9;
  3D0A : 41C9;
  3D0B : 49C9;
  3D0C : 41E8;
  3D0D : 49C8;
  3D0E : 41C8;
  3D0F : 49C8;
  3D10 : 49C9;
  3D11 : 49C9;
  3D12 : 49C9;
  3D13 : 49C9;
  3D14 : 49C9;
  3D15 : 49C9;
  3D16 : 49C9;
  3D17 : 49C9;
  3D18 : 49C9;
  3D19 : 49C9;
  3D1A : 41E9;
  3D1B : 49A9;
  3D1C : 41C9;
  3D1D : 49C9;
  3D1E : 41E8;
  3D1F : 49C9;
  3D20 : 49C8;
  3D21 : 41E8;
  3D22 : 41C9;
  3D23 : 49C9;
  3D24 : 41C9;
  3D25 : 49C9;
  3D26 : 49C9;
  3D27 : 49C8;
  3D28 : 49C9;
  3D29 : 49C9;
  3D2A : 49C9;
  3D2B : 49C9;
  3D2C : 49C9;
  3D2D : 49C9;
  3D2E : 49C9;
  3D2F : 49C9;
  3D30 : 49C9;
  3D31 : 49C9;
  3D32 : 49C9;
  3D33 : 49C9;
  3D34 : 49C9;
  3D35 : 49C9;
  3D36 : 49C9;
  3D37 : 49C8;
  3D38 : 41E8;
  3D39 : 49A9;
  3D3A : 41C9;
  3D3B : 49C9;
  3D3C : 41E8;
  3D3D : 49C9;
  3D3E : 41C9;
  3D3F : 49C8;
  3D40 : 49C8;
  3D41 : 49C9;
  3D42 : 41E9;
  3D43 : 49A8;
  3D44 : 41C8;
  3D45 : 49C9;
  3D46 : 41C9;
  3D47 : 49C9;
  3D48 : 49C8;
  3D49 : 49C8;
  3D4A : 49C8;
  3D4B : 49C9;
  3D4C : 49C9;
  3D4D : 49C9;
  3D4E : 49C9;
  3D4F : 49C8;
  3D50 : 49C8;
  3D51 : 49C9;
  3D52 : 41E9;
  3D53 : 49A8;
  3D54 : 41C8;
  3D55 : 49C9;
  3D56 : 41C9;
  3D57 : 49C9;
  3D58 : 49C8;
  3D59 : 49C8;
  3D5A : 49C9;
  3D5B : 49C9;
  3D5C : 49C9;
  3D5D : 49C9;
  3D5E : 49C9;
  3D5F : 49C9;
  3D60 : 49C9;
  3D61 : 49C8;
  3D62 : 41C9;
  3D63 : 49A8;
  3D64 : 41CA;
  3D65 : 49C8;
  3D66 : 41E9;
  3D67 : 41C9;
  3D68 : 41C9;
  3D69 : 49C9;
  3D6A : 49C9;
  3D6B : 41C9;
  3D6C : 49C9;
  3D6D : 49C8;
  3D6E : 49C8;
  3D6F : 49C8;
  3D70 : 49A9;
  3D71 : 41C8;
  3D72 : 41E8;
  3D73 : 51A8;
  3D74 : 41E9;
  3D75 : 49E8;
  3D76 : 41E8;
  3D77 : 4A0A;
  3D78 : 8EBB;
  3D79 : 4E19;
  3D7A : 4E19;
  3D7B : 4E19;
  3D7C : 4E19;
  3D7D : 4E19;
  3D7E : 4E19;
  3D7F : 4E19;
  3D80 : 4E19;
  3D81 : 4E19;
  3D82 : 4E19;
  3D83 : 4E19;
  3D84 : 4E19;
  3D85 : 4E19;
  3D86 : 4E19;
  3D87 : 4E19;
  3D88 : 4E19;
  3D89 : 4E19;
  3D8A : 4E19;
  3D8B : 4E19;
  3D8C : 4E19;
  3D8D : 4E19;
  3D8E : 4E19;
  3D8F : 4E19;
  3D90 : 4E19;
  3D91 : 4E19;
  3D92 : 4E19;
  3D93 : 4E19;
  3D94 : 4E19;
  3D95 : 4E19;
  3D96 : 4DF9;
  3D97 : 4DB8;
  3D98 : 8C52;
  3D99 : 49E9;
  3D9A : 41C9;
  3D9B : 49C9;
  3D9C : 41E8;
  3D9D : 49C8;
  3D9E : 41C8;
  3D9F : 49C8;
  3DA0 : 49C9;
  3DA1 : 49C9;
  3DA2 : 49C9;
  3DA3 : 49C9;
  3DA4 : 49C9;
  3DA5 : 49C9;
  3DA6 : 49C9;
  3DA7 : 49C8;
  3DA8 : 49C9;
  3DA9 : 41E9;
  3DAA : 41C9;
  3DAB : 49C9;
  3DAC : 49C9;
  3DAD : 41C9;
  3DAE : 41C9;
  3DAF : 49C9;
  3DB0 : 49C8;
  3DB1 : 49C8;
  3DB2 : 49C8;
  3DB3 : 49C9;
  3DB4 : 49C9;
  3DB5 : 49C9;
  3DB6 : 49C9;
  3DB7 : 49C8;
  3DB8 : 49C8;
  3DB9 : 49C8;
  3DBA : 41C8;
  3DBB : 49C8;
  3DBC : 41E9;
  3DBD : 49C9;
  3DBE : 41E9;
  3DBF : 41EA;
  3DC0 : 3CD4;
  3DC1 : BF3D;
  3DC2 : 5E19;
  3DC3 : 5E39;
  3DC4 : 4E19;
  3DC5 : 4E19;
  3DC6 : 4E19;
  3DC7 : 4E19;
  3DC8 : 4E19;
  3DC9 : 4E19;
  3DCA : 4E19;
  3DCB : 4E19;
  3DCC : 9E99;
  3DCD : 4AED;
  3DCE : 49C9;
  3DCF : 41E8;
  3DD0 : 49C8;
  3DD1 : 49C9;
  3DD2 : 49C9;
  3DD3 : 49C9;
  3DD4 : 49C9;
  3DD5 : 49C9;
  3DD6 : 49C9;
  3DD7 : 49C8;
  3DD8 : 49C9;
  3DD9 : 41E8;
  3DDA : 41E9;
  3DDB : 49C9;
  3DDC : 49E9;
  3DDD : C75D;
  3DDE : 4E19;
  3DDF : 4E19;
  3DE0 : 4E19;
  3DE1 : 49E8;
  3DE2 : 41E8;
  3DE3 : 49C9;
  3DE4 : 49A9;
  3DE5 : 49C8;
  3DE6 : 41E8;
  3DE7 : 49A9;
  3DE8 : 49C9;
  3DE9 : 49C9;
  3DEA : 49C9;
  3DEB : 49C9;
  3DEC : 49C9;
  3DED : 49C9;
  3DEE : 49C9;
  3DEF : 49C8;
  3DF0 : 49C9;
  3DF1 : 41E8;
  3DF2 : 41E9;
  3DF3 : 49C9;
  3DF4 : 49E9;
  3DF5 : C75D;
  3DF6 : 4E19;
  3DF7 : 4E19;
  3DF8 : 4E19;
  3DF9 : 4E19;
  3DFA : 4E19;
  3DFB : 4E19;
  3DFC : 4E19;
  3DFD : 4E19;
  3DFE : 4E19;
  3DFF : 4E19;
  3E00 : 4E19;
  3E01 : 4E19;
  3E02 : 4E19;
  3E03 : 4E19;
  3E04 : 4E19;
  3E05 : 4E19;
  3E06 : 4E19;
  3E07 : BF3D;
  3E08 : 6411;
  3E09 : 5BF0;
  3E0A : 63F0;
  3E0B : 5BD0;
  3E0C : 5BF0;
  3E0D : 5BD0;
  3E0E : 5BD0;
  3E0F : 5BD0;
  3E10 : 5BD0;
  3E11 : 5BD0;
  3E12 : 5BD0;
  3E13 : 5BD0;
  3E14 : 5BD0;
  3E15 : 5BD0;
  3E16 : 5BD0;
  3E17 : 5BD0;
  3E18 : 5BD0;
  3E19 : 5BD0;
  3E1A : 5BD0;
  3E1B : 63D0;
  3E1C : 5BD0;
  3E1D : 5BD0;
  3E1E : 5BD0;
  3E1F : 63D0;
  3E20 : 63D0;
  3E21 : 5BD0;
  3E22 : 5BD0;
  3E23 : 5BD0;
  3E24 : 5BF0;
  3E25 : 5BD0;
  3E26 : 5BD1;
  3E27 : 5BD0;
  3E28 : 5BD0;
  3E29 : 5BD0;
  3E2A : 5BD0;
  3E2B : 5BD0;
  3E2C : 5BD0;
  3E2D : 5BD0;
  3E2E : 5BD0;
  3E2F : 5BD0;
  3E30 : 5BD0;
  3E31 : 5BD0;
  3E32 : 5BD0;
  3E33 : 5BD0;
  3E34 : 5BD0;
  3E35 : 5BD0;
  3E36 : 5BD0;
  3E37 : 5BD0;
  3E38 : 5BD0;
  3E39 : 63D0;
  3E3A : 5BD0;
  3E3B : 5BD0;
  3E3C : 5BD0;
  3E3D : 5BD0;
  3E3E : 5BD0;
  3E3F : 5BD0;
  3E40 : 5BD0;
  3E41 : 5BD0;
  3E42 : 5BD0;
  3E43 : 63D0;
  3E44 : 5BD0;
  3E45 : 5BD0;
  3E46 : 5BD0;
  3E47 : 63D0;
  3E48 : 5BD0;
  3E49 : 5BD0;
  3E4A : 5BD0;
  3E4B : 5BD0;
  3E4C : 5BD0;
  3E4D : 5BD0;
  3E4E : 5BD0;
  3E4F : 5BD0;
  3E50 : 5BD0;
  3E51 : 5BD0;
  3E52 : 5BD0;
  3E53 : 63D0;
  3E54 : 5BD0;
  3E55 : 5BD0;
  3E56 : 5BD0;
  3E57 : 63D0;
  3E58 : 5BD0;
  3E59 : 5BD0;
  3E5A : 5BD0;
  3E5B : 5BD0;
  3E5C : 5BD0;
  3E5D : 5BD0;
  3E5E : 5BD0;
  3E5F : 5BD0;
  3E60 : 5BD1;
  3E61 : 5BD0;
  3E62 : 5BF0;
  3E63 : 63D0;
  3E64 : 5BD0;
  3E65 : 63F0;
  3E66 : 5BD0;
  3E67 : 5BF0;
  3E68 : 5BD0;
  3E69 : 5BD0;
  3E6A : 5BD0;
  3E6B : 5BD0;
  3E6C : 5BD0;
  3E6D : 5BD0;
  3E6E : 5BD0;
  3E6F : 5BD0;
  3E70 : 5BD0;
  3E71 : 5BF0;
  3E72 : 5BF0;
  3E73 : 63D0;
  3E74 : 5BF0;
  3E75 : 5BF0;
  3E76 : 5C11;
  3E77 : 5C11;
  3E78 : 869B;
  3E79 : 4E19;
  3E7A : 4E19;
  3E7B : 4E19;
  3E7C : 4E19;
  3E7D : 4E19;
  3E7E : 4E19;
  3E7F : 4E19;
  3E80 : 4E19;
  3E81 : 4E19;
  3E82 : 4E19;
  3E83 : 4E19;
  3E84 : 4E19;
  3E85 : 4E19;
  3E86 : 4E19;
  3E87 : 4E19;
  3E88 : 4E19;
  3E89 : 4E19;
  3E8A : 4E19;
  3E8B : 4E19;
  3E8C : 4E19;
  3E8D : 4E19;
  3E8E : 4E19;
  3E8F : 4E19;
  3E90 : 4E19;
  3E91 : 4E19;
  3E92 : 4E19;
  3E93 : 4E19;
  3E94 : 4E19;
  3E95 : 4E19;
  3E96 : 4E19;
  3E97 : 4E19;
  3E98 : A5F8;
  3E99 : 5BF0;
  3E9A : 63F0;
  3E9B : 5BD0;
  3E9C : 5BF0;
  3E9D : 5BD0;
  3E9E : 5BD0;
  3E9F : 5BD0;
  3EA0 : 5BD0;
  3EA1 : 5BD0;
  3EA2 : 5BD0;
  3EA3 : 5BD0;
  3EA4 : 5BD0;
  3EA5 : 5BD0;
  3EA6 : 5BD0;
  3EA7 : 5BD0;
  3EA8 : 5BD0;
  3EA9 : 5BD0;
  3EAA : 5BF0;
  3EAB : 5BD0;
  3EAC : 5BD0;
  3EAD : 5BF0;
  3EAE : 5BD0;
  3EAF : 5BD0;
  3EB0 : 5BD0;
  3EB1 : 5BD0;
  3EB2 : 5BD0;
  3EB3 : 5BD0;
  3EB4 : 5BD0;
  3EB5 : 5BD0;
  3EB6 : 5BD0;
  3EB7 : 5BD0;
  3EB8 : 5BD0;
  3EB9 : 5BD0;
  3EBA : 5BD0;
  3EBB : 63D0;
  3EBC : 5BF0;
  3EBD : 63D0;
  3EBE : 5BF0;
  3EBF : 63F1;
  3EC0 : 5D96;
  3EC1 : A6BB;
  3EC2 : B6DB;
  3EC3 : 9EDB;
  3EC4 : 4E19;
  3EC5 : 4E19;
  3EC6 : 4E19;
  3EC7 : 4E19;
  3EC8 : 4E19;
  3EC9 : 4E19;
  3ECA : 4E19;
  3ECB : 4E19;
  3ECC : A6BB;
  3ECD : 5C73;
  3ECE : 5BF0;
  3ECF : 5BF0;
  3ED0 : 5BD0;
  3ED1 : 5BF0;
  3ED2 : 5BD0;
  3ED3 : 5BD0;
  3ED4 : 5BD0;
  3ED5 : 5BD0;
  3ED6 : 5BD0;
  3ED7 : 5BD0;
  3ED8 : 5BF0;
  3ED9 : 5BF0;
  3EDA : 5BF1;
  3EDB : 5BF0;
  3EDC : 5BF1;
  3EDD : BF3D;
  3EDE : 4E19;
  3EDF : 4E19;
  3EE0 : 4E19;
  3EE1 : 5BF0;
  3EE2 : 5BF0;
  3EE3 : 63F0;
  3EE4 : 63D0;
  3EE5 : 5BF0;
  3EE6 : 5BF0;
  3EE7 : 5BD0;
  3EE8 : 5BD0;
  3EE9 : 5BD0;
  3EEA : 5BD0;
  3EEB : 5BD0;
  3EEC : 5BD0;
  3EED : 5BD0;
  3EEE : 5BD0;
  3EEF : 5BD0;
  3EF0 : 5BF0;
  3EF1 : 5BF0;
  3EF2 : 5BF1;
  3EF3 : 5BF1;
  3EF4 : 5C11;
  3EF5 : BF3D;
  3EF6 : 4E19;
  3EF7 : 4E19;
  3EF8 : 4E19;
  3EF9 : 4E19;
  3EFA : 4E19;
  3EFB : 4E19;
  3EFC : 4E19;
  3EFD : 4E19;
  3EFE : 4E19;
  3EFF : 4E19;
  3F00 : 4E19;
  3F01 : 4E19;
  3F02 : 4E19;
  3F03 : 4E19;
  3F04 : 4E19;
  3F05 : 4E19;
  3F06 : 4E19;
  3F07 : 8EBB;
  3F08 : C75D;
  3F09 : C75D;
  3F0A : C75D;
  3F0B : C75D;
  3F0C : C75D;
  3F0D : C75D;
  3F0E : C75D;
  3F0F : C75D;
  3F10 : C75D;
  3F11 : C75D;
  3F12 : C75D;
  3F13 : C75D;
  3F14 : C75D;
  3F15 : C75D;
  3F16 : C75D;
  3F17 : C75D;
  3F18 : C75D;
  3F19 : C75D;
  3F1A : C75D;
  3F1B : C75D;
  3F1C : C75D;
  3F1D : C75D;
  3F1E : C75D;
  3F1F : C75D;
  3F20 : C75D;
  3F21 : C75D;
  3F22 : C75D;
  3F23 : C75D;
  3F24 : C75D;
  3F25 : C75D;
  3F26 : C75D;
  3F27 : C75D;
  3F28 : C75D;
  3F29 : C75D;
  3F2A : C75D;
  3F2B : C75D;
  3F2C : C75D;
  3F2D : C75D;
  3F2E : C75D;
  3F2F : C75D;
  3F30 : C75D;
  3F31 : C75D;
  3F32 : C75D;
  3F33 : C75D;
  3F34 : C75D;
  3F35 : C75D;
  3F36 : C75D;
  3F37 : C75D;
  3F38 : C75D;
  3F39 : C75D;
  3F3A : C75D;
  3F3B : C75D;
  3F3C : C75D;
  3F3D : C75D;
  3F3E : C75D;
  3F3F : C75D;
  3F40 : C75D;
  3F41 : C75D;
  3F42 : C75D;
  3F43 : C75D;
  3F44 : C75D;
  3F45 : C75D;
  3F46 : C75D;
  3F47 : C75D;
  3F48 : C75D;
  3F49 : C75D;
  3F4A : C75D;
  3F4B : C75D;
  3F4C : C75D;
  3F4D : C75D;
  3F4E : C75D;
  3F4F : C75D;
  3F50 : C75D;
  3F51 : C75D;
  3F52 : C75D;
  3F53 : C75D;
  3F54 : C75D;
  3F55 : C75D;
  3F56 : C75D;
  3F57 : C75D;
  3F58 : C75D;
  3F59 : C75D;
  3F5A : C75D;
  3F5B : C75D;
  3F5C : C75D;
  3F5D : C75D;
  3F5E : C75D;
  3F5F : C75D;
  3F60 : C75D;
  3F61 : C75D;
  3F62 : C75D;
  3F63 : C75D;
  3F64 : C75D;
  3F65 : C75D;
  3F66 : C75D;
  3F67 : C75D;
  3F68 : C75D;
  3F69 : C75D;
  3F6A : C75D;
  3F6B : C75D;
  3F6C : C75D;
  3F6D : C75D;
  3F6E : C75D;
  3F6F : C75D;
  3F70 : C75D;
  3F71 : C75D;
  3F72 : C75D;
  3F73 : C75D;
  3F74 : C75D;
  3F75 : C75D;
  3F76 : C75D;
  3F77 : C75D;
  3F78 : 663A;
  3F79 : 4E19;
  3F7A : 4E19;
  3F7B : 4E19;
  3F7C : 4E19;
  3F7D : 4E19;
  3F7E : 4E19;
  3F7F : 4E19;
  3F80 : 4E19;
  3F81 : 4E19;
  3F82 : 4E19;
  3F83 : 4E19;
  3F84 : 4E19;
  3F85 : 4E19;
  3F86 : 4E19;
  3F87 : 4E19;
  3F88 : 4E19;
  3F89 : 4E19;
  3F8A : 4E19;
  3F8B : 4E19;
  3F8C : 4E19;
  3F8D : 4E19;
  3F8E : 4E19;
  3F8F : 4E19;
  3F90 : 4E19;
  3F91 : 4E19;
  3F92 : 4E19;
  3F93 : 4E19;
  3F94 : 4E19;
  3F95 : 4E19;
  3F96 : 4E19;
  3F97 : 4E19;
  3F98 : 9EFC;
  3F99 : C75D;
  3F9A : C75D;
  3F9B : C75D;
  3F9C : C75D;
  3F9D : C75D;
  3F9E : C75D;
  3F9F : C75D;
  3FA0 : C75D;
  3FA1 : C75D;
  3FA2 : C75D;
  3FA3 : C75D;
  3FA4 : C75D;
  3FA5 : C75D;
  3FA6 : C75D;
  3FA7 : C75D;
  3FA8 : C75D;
  3FA9 : C75D;
  3FAA : C75D;
  3FAB : C75D;
  3FAC : C75D;
  3FAD : C75D;
  3FAE : C75D;
  3FAF : C75D;
  3FB0 : C75D;
  3FB1 : C75D;
  3FB2 : C75D;
  3FB3 : C75D;
  3FB4 : C75D;
  3FB5 : C75D;
  3FB6 : C75D;
  3FB7 : C75D;
  3FB8 : C75D;
  3FB9 : C75D;
  3FBA : C75D;
  3FBB : C75D;
  3FBC : C75D;
  3FBD : C75D;
  3FBE : C75D;
  3FBF : C75D;
  3FC0 : C75D;
  3FC1 : C75D;
  3FC2 : AF1C;
  3FC3 : 767A;
  3FC4 : 4E19;
  3FC5 : 4E19;
  3FC6 : 4E19;
  3FC7 : 4E19;
  3FC8 : 4E19;
  3FC9 : 4E19;
  3FCA : 4E19;
  3FCB : 4E19;
  3FCC : 8EBB;
  3FCD : C75D;
  3FCE : C75D;
  3FCF : C75D;
  3FD0 : C75D;
  3FD1 : C75D;
  3FD2 : C75D;
  3FD3 : C75D;
  3FD4 : C75D;
  3FD5 : C75D;
  3FD6 : C75D;
  3FD7 : C75D;
  3FD8 : C75D;
  3FD9 : C75D;
  3FDA : C75D;
  3FDB : C75D;
  3FDC : C75D;
  3FDD : 767A;
  3FDE : 4E19;
  3FDF : 4E19;
  3FE0 : 4E19;
  3FE1 : AF1C;
  3FE2 : C75D;
  3FE3 : C75D;
  3FE4 : C75D;
  3FE5 : C75D;
  3FE6 : C75D;
  3FE7 : C75D;
  3FE8 : C75D;
  3FE9 : C75D;
  3FEA : C75D;
  3FEB : C75D;
  3FEC : C75D;
  3FED : C75D;
  3FEE : C75D;
  3FEF : C75D;
  3FF0 : C75D;
  3FF1 : C75D;
  3FF2 : C75D;
  3FF3 : C75D;
  3FF4 : C75D;
  3FF5 : 8EBB;
  3FF6 : 4E19;
  3FF7 : 4E19;
  3FF8 : 4E19;
  3FF9 : 4E19;
  3FFA : 4E19;
  3FFB : 4E19;
  3FFC : 4E19;
  3FFD : 4E19;
  3FFE : 4E19;
  3FFF : 4E19;
END;
