DEPTH = 1024;
WIDTH = 16;

ADDRESS_RADIX = HEX;
DATA_RADIX = HEX;

CONTENT BEGIN
  00 : 0000;
  01 : 0000;
  02 : 0000;
  03 : 0000;
  04 : 0000;
  05 : 0000;
  06 : 0000;
  07 : 0000;
  08 : 0000;
  09 : 0000;
  0A : 0000;
  0B : 51C8;
  0C : 51C8;
  0D : 51C8;
  0E : 51C8;
  0F : 51C8;
  10 : 51C8;
  11 : 51C8;
  12 : 51C8;
  13 : 51C8;
  14 : 51C8;
  15 : 51C8;
  16 : 51C8;
  17 : 0000;
  18 : 0000;
  19 : 0000;
  1A : 0000;
  1B : 0000;
  1C : 0000;
  1D : 0000;
  1E : 0000;
  1F : 0000;
  20 : 0000;
  21 : 0000;
  22 : 0000;
  23 : 0000;
  24 : 0000;
  25 : 0000;
  26 : 0000;
  27 : 0000;
  28 : 0000;
  29 : 0000;
  2A : 0000;
  2B : 51C8;
  2C : 51C8;
  2D : 51C8;
  2E : 51C8;
  2F : 51C8;
  30 : 51C8;
  31 : 51C8;
  32 : 51C8;
  33 : 51C8;
  34 : 51C8;
  35 : 51C8;
  36 : 51C8;
  37 : 0000;
  38 : 0000;
  39 : 0000;
  3A : 0000;
  3B : 0000;
  3C : 0000;
  3D : 0000;
  3E : 0000;
  3F : 0000;
  40 : 0000;
  41 : 0000;
  42 : 0000;
  43 : 0000;
  44 : 0000;
  45 : 0000;
  46 : 0000;
  47 : 0000;
  48 : 0000;
  49 : 0000;
  4A : 0000;
  4B : 51C8;
  4C : 51C8;
  4D : 51C8;
  4E : 51C8;
  4F : 51C8;
  50 : 51C8;
  51 : 51C8;
  52 : 51C8;
  53 : 51C8;
  54 : 51C8;
  55 : 51C8;
  56 : 51C8;
  57 : 0000;
  58 : 0000;
  59 : 0000;
  5A : 0000;
  5B : 0000;
  5C : 0000;
  5D : 0000;
  5E : 0000;
  5F : 0000;
  60 : 0000;
  61 : 0000;
  62 : 0000;
  63 : 0000;
  64 : 0000;
  65 : 0000;
  66 : 0000;
  67 : 0000;
  68 : 51C8;
  69 : 51C8;
  6A : 51C8;
  6B : FB81;
  6C : FB81;
  6D : FB81;
  6E : FB81;
  6F : FB81;
  70 : FB81;
  71 : 51C8;
  72 : 51C8;
  73 : FFDF;
  74 : FFDF;
  75 : FFDF;
  76 : FFDF;
  77 : 51C8;
  78 : 0000;
  79 : 0000;
  7A : 0000;
  7B : 0000;
  7C : 0000;
  7D : 0000;
  7E : 0000;
  7F : 0000;
  80 : 0000;
  81 : 0000;
  82 : 0000;
  83 : 0000;
  84 : 0000;
  85 : 0000;
  86 : 0000;
  87 : 0000;
  88 : 51C8;
  89 : 51C8;
  8A : 51C8;
  8B : FB81;
  8C : FB81;
  8D : FB81;
  8E : FB81;
  8F : FB81;
  90 : FB81;
  91 : 51C8;
  92 : 51C8;
  93 : FFDF;
  94 : FFDF;
  95 : FFDF;
  96 : FFDF;
  97 : 51C8;
  98 : 0000;
  99 : 0000;
  9A : 0000;
  9B : 0000;
  9C : 0000;
  9D : 0000;
  9E : 0000;
  9F : 0000;
  A0 : 0000;
  A1 : 0000;
  A2 : 0000;
  A3 : 0000;
  A4 : 0000;
  A5 : 0000;
  A6 : 51C8;
  A7 : 51C8;
  A8 : FB81;
  A9 : FB81;
  AA : FB81;
  AB : F9C0;
  AC : F9C0;
  AD : F9C0;
  AE : F9C0;
  AF : 51C8;
  B0 : 51C8;
  B1 : FFDF;
  B2 : FFDF;
  B3 : FFDF;
  B4 : FFDF;
  B5 : FFDF;
  B6 : FFDF;
  B7 : FFDF;
  B8 : 51C8;
  B9 : 51C8;
  BA : 0000;
  BB : 0000;
  BC : 0000;
  BD : 0000;
  BE : 0000;
  BF : 0000;
  C0 : 0000;
  C1 : 0000;
  C2 : 0000;
  C3 : 0000;
  C4 : 0000;
  C5 : 0000;
  C6 : 51C8;
  C7 : 51C8;
  C8 : FB81;
  C9 : FB81;
  CA : FB81;
  CB : F9C0;
  CC : F9C0;
  CD : F9C0;
  CE : F9C0;
  CF : 51C8;
  D0 : 51C8;
  D1 : FFDF;
  D2 : FFDF;
  D3 : FFDF;
  D4 : FFDF;
  D5 : FFDF;
  D6 : FFDF;
  D7 : FFDF;
  D8 : 51C8;
  D9 : 51C8;
  DA : 0000;
  DB : 0000;
  DC : 0000;
  DD : 0000;
  DE : 0000;
  DF : 0000;
  E0 : 0000;
  E1 : 0000;
  E2 : 0000;
  E3 : 0000;
  E4 : 0000;
  E5 : 0000;
  E6 : 51C8;
  E7 : 51C8;
  E8 : FB81;
  E9 : FB81;
  EA : FB81;
  EB : F9C0;
  EC : F9C0;
  ED : F9C0;
  EE : F9C0;
  EF : 51C8;
  F0 : 51C8;
  F1 : FFDF;
  F2 : FFDF;
  F3 : FFDF;
  F4 : FFDF;
  F5 : FFDF;
  F6 : FFDF;
  F7 : FFDF;
  F8 : 51C8;
  F9 : 51C8;
  FA : 0000;
  FB : 0000;
  FC : 0000;
  FD : 0000;
  FE : 0000;
  FF : 0000;
  100 : 0000;
  101 : 0000;
  102 : 0000;
  103 : 0000;
  104 : 51C8;
  105 : 51C8;
  106 : FB81;
  107 : FB81;
  108 : F9C0;
  109 : F9C0;
  10A : F9C0;
  10B : F9C0;
  10C : F9C0;
  10D : F9C0;
  10E : F9C0;
  10F : 51C8;
  110 : 51C8;
  111 : D739;
  112 : D739;
  113 : FFDF;
  114 : FFDF;
  115 : FFDF;
  116 : FFDF;
  117 : 51C8;
  118 : FFDF;
  119 : FFDF;
  11A : 51C8;
  11B : 51C8;
  11C : 0000;
  11D : 0000;
  11E : 0000;
  11F : 0000;
  120 : 0000;
  121 : 0000;
  122 : 0000;
  123 : 0000;
  124 : 51C8;
  125 : 51C8;
  126 : FB81;
  127 : FB81;
  128 : F9C0;
  129 : F9C0;
  12A : F9C0;
  12B : F9C0;
  12C : F9C0;
  12D : F9C0;
  12E : F9C0;
  12F : 51C8;
  130 : 51C8;
  131 : D739;
  132 : D739;
  133 : FFDF;
  134 : FFDF;
  135 : FFDF;
  136 : FFDF;
  137 : 51C8;
  138 : FFDF;
  139 : FFDF;
  13A : 51C8;
  13B : 51C8;
  13C : 0000;
  13D : 0000;
  13E : 0000;
  13F : 0000;
  140 : 0000;
  141 : 0000;
  142 : 0000;
  143 : 0000;
  144 : 51C8;
  145 : 51C8;
  146 : FB81;
  147 : FB81;
  148 : F9C0;
  149 : F9C0;
  14A : F9C0;
  14B : F9C0;
  14C : F9C0;
  14D : F9C0;
  14E : F9C0;
  14F : 51C8;
  150 : 51C8;
  151 : D739;
  152 : D739;
  153 : FFDF;
  154 : FFDF;
  155 : FFDF;
  156 : FFDF;
  157 : 51C8;
  158 : FFDF;
  159 : FFDF;
  15A : 51C8;
  15B : 51C8;
  15C : 0000;
  15D : 0000;
  15E : 0000;
  15F : 0000;
  160 : 0000;
  161 : 0000;
  162 : 51C8;
  163 : 51C8;
  164 : F9C0;
  165 : F9C0;
  166 : F9C0;
  167 : F9C0;
  168 : F9C0;
  169 : F9C0;
  16A : F9C0;
  16B : F9C0;
  16C : F9C0;
  16D : F9C0;
  16E : F9C0;
  16F : 51C8;
  170 : 51C8;
  171 : D739;
  172 : D739;
  173 : FFDF;
  174 : FFDF;
  175 : FFDF;
  176 : FFDF;
  177 : 51C8;
  178 : FFDF;
  179 : FFDF;
  17A : 51C8;
  17B : 51C8;
  17C : 0000;
  17D : 0000;
  17E : 0000;
  17F : 0000;
  180 : 0000;
  181 : 0000;
  182 : 51C8;
  183 : 51C8;
  184 : F9C0;
  185 : F9C0;
  186 : F9C0;
  187 : F9C0;
  188 : F9C0;
  189 : F9C0;
  18A : F9C0;
  18B : F9C0;
  18C : F9C0;
  18D : F9C0;
  18E : F9C0;
  18F : 51C8;
  190 : 51C8;
  191 : D739;
  192 : D739;
  193 : FFDF;
  194 : FFDF;
  195 : FFDF;
  196 : FFDF;
  197 : 51C8;
  198 : FFDF;
  199 : FFDF;
  19A : 51C8;
  19B : 51C8;
  19C : 0000;
  19D : 0000;
  19E : 0000;
  19F : 0000;
  1A0 : 0000;
  1A1 : 0000;
  1A2 : 51C8;
  1A3 : 51C8;
  1A4 : F9C0;
  1A5 : F9C0;
  1A6 : F9C0;
  1A7 : F9C0;
  1A8 : F9C0;
  1A9 : F9C0;
  1AA : F9C0;
  1AB : F9C0;
  1AC : F9C0;
  1AD : F9C0;
  1AE : F9C0;
  1AF : F9C0;
  1B0 : F9C0;
  1B1 : 51C8;
  1B2 : 51C8;
  1B3 : D739;
  1B4 : D739;
  1B5 : FFDF;
  1B6 : FFDF;
  1B7 : FFDF;
  1B8 : FFDF;
  1B9 : FFDF;
  1BA : 51C8;
  1BB : 51C8;
  1BC : 0000;
  1BD : 0000;
  1BE : 0000;
  1BF : 0000;
  1C0 : 0000;
  1C1 : 0000;
  1C2 : 51C8;
  1C3 : 51C8;
  1C4 : F9C0;
  1C5 : F9C0;
  1C6 : F9C0;
  1C7 : F9C0;
  1C8 : F9C0;
  1C9 : F9C0;
  1CA : F9C0;
  1CB : F9C0;
  1CC : F9C0;
  1CD : F9C0;
  1CE : F9C0;
  1CF : F9C0;
  1D0 : F9C0;
  1D1 : 51C8;
  1D2 : 51C8;
  1D3 : D739;
  1D4 : D739;
  1D5 : FFDF;
  1D6 : FFDF;
  1D7 : FFDF;
  1D8 : FFDF;
  1D9 : FFDF;
  1DA : 51C8;
  1DB : 51C8;
  1DC : 0000;
  1DD : 0000;
  1DE : 0000;
  1DF : 0000;
  1E0 : 0000;
  1E1 : 0000;
  1E2 : 51C8;
  1E3 : 51C8;
  1E4 : F9C0;
  1E5 : F9C0;
  1E6 : F9C0;
  1E7 : F9C0;
  1E8 : F9C0;
  1E9 : F9C0;
  1EA : F9C0;
  1EB : F9C0;
  1EC : F9C0;
  1ED : F9C0;
  1EE : F9C0;
  1EF : F9C0;
  1F0 : F9C0;
  1F1 : 51C8;
  1F2 : 51C8;
  1F3 : D739;
  1F4 : D739;
  1F5 : FFDF;
  1F6 : FFDF;
  1F7 : FFDF;
  1F8 : FFDF;
  1F9 : FFDF;
  1FA : 51C8;
  1FB : 51C8;
  1FC : 0000;
  1FD : 0000;
  1FE : 0000;
  1FF : 0000;
  200 : 0000;
  201 : 0000;
  202 : 51C8;
  203 : 51C8;
  204 : 51C8;
  205 : 51C8;
  206 : 51C8;
  207 : 51C8;
  208 : 51C8;
  209 : 51C8;
  20A : 51C8;
  20B : F9C0;
  20C : F9C0;
  20D : F9C0;
  20E : F9C0;
  20F : F9C0;
  210 : F9C0;
  211 : F9C0;
  212 : F9C0;
  213 : 51C8;
  214 : 51C8;
  215 : 51C8;
  216 : 51C8;
  217 : 51C8;
  218 : 51C8;
  219 : 51C8;
  21A : 51C8;
  21B : 51C8;
  21C : 51C8;
  21D : 51C8;
  21E : 0000;
  21F : 0000;
  220 : 0000;
  221 : 0000;
  222 : 51C8;
  223 : 51C8;
  224 : 51C8;
  225 : 51C8;
  226 : 51C8;
  227 : 51C8;
  228 : 51C8;
  229 : 51C8;
  22A : 51C8;
  22B : F9C0;
  22C : F9C0;
  22D : F9C0;
  22E : F9C0;
  22F : F9C0;
  230 : F9C0;
  231 : F9C0;
  232 : F9C0;
  233 : 51C8;
  234 : 51C8;
  235 : 51C8;
  236 : 51C8;
  237 : 51C8;
  238 : 51C8;
  239 : 51C8;
  23A : 51C8;
  23B : 51C8;
  23C : 51C8;
  23D : 51C8;
  23E : 0000;
  23F : 0000;
  240 : 0000;
  241 : 0000;
  242 : 51C8;
  243 : 51C8;
  244 : 51C8;
  245 : 51C8;
  246 : 51C8;
  247 : 51C8;
  248 : 51C8;
  249 : 51C8;
  24A : 51C8;
  24B : F9C0;
  24C : F9C0;
  24D : F9C0;
  24E : F9C0;
  24F : F9C0;
  250 : F9C0;
  251 : F9C0;
  252 : F9C0;
  253 : 51C8;
  254 : 51C8;
  255 : 51C8;
  256 : 51C8;
  257 : 51C8;
  258 : 51C8;
  259 : 51C8;
  25A : 51C8;
  25B : 51C8;
  25C : 51C8;
  25D : 51C8;
  25E : 0000;
  25F : 0000;
  260 : 51C8;
  261 : 51C8;
  262 : D739;
  263 : D739;
  264 : FFDF;
  265 : FFDF;
  266 : FFDF;
  267 : FFDF;
  268 : FFDF;
  269 : D739;
  26A : D739;
  26B : 51C8;
  26C : 51C8;
  26D : F9C0;
  26E : F9C0;
  26F : F9C0;
  270 : F9C0;
  271 : 51C8;
  272 : 51C8;
  273 : FDA6;
  274 : FDA6;
  275 : FDA6;
  276 : FDA6;
  277 : FDA6;
  278 : FDA6;
  279 : FDA6;
  27A : FDA6;
  27B : FDA6;
  27C : FDA6;
  27D : FDA6;
  27E : 51C8;
  27F : 51C8;
  280 : 51C8;
  281 : 51C8;
  282 : D739;
  283 : D739;
  284 : FFDF;
  285 : FFDF;
  286 : FFDF;
  287 : FFDF;
  288 : FFDF;
  289 : D739;
  28A : D739;
  28B : 51C8;
  28C : 51C8;
  28D : F9C0;
  28E : F9C0;
  28F : F9C0;
  290 : F9C0;
  291 : 51C8;
  292 : 51C8;
  293 : FDA6;
  294 : FDA6;
  295 : FDA6;
  296 : FDA6;
  297 : FDA6;
  298 : FDA6;
  299 : FDA6;
  29A : FDA6;
  29B : FDA6;
  29C : FDA6;
  29D : FDA6;
  29E : 51C8;
  29F : 51C8;
  2A0 : 51C8;
  2A1 : 51C8;
  2A2 : FFDF;
  2A3 : FFDF;
  2A4 : FFDF;
  2A5 : FFDF;
  2A6 : FFDF;
  2A7 : FFDF;
  2A8 : FFDF;
  2A9 : 51C8;
  2AA : 51C8;
  2AB : D160;
  2AC : D160;
  2AD : D160;
  2AE : D160;
  2AF : 51C8;
  2B0 : 51C8;
  2B1 : FDA6;
  2B2 : FDA6;
  2B3 : 51C8;
  2B4 : 51C8;
  2B5 : 51C8;
  2B6 : 51C8;
  2B7 : 51C8;
  2B8 : 51C8;
  2B9 : 51C8;
  2BA : 51C8;
  2BB : 51C8;
  2BC : 51C8;
  2BD : 51C8;
  2BE : 0000;
  2BF : 0000;
  2C0 : 51C8;
  2C1 : 51C8;
  2C2 : FFDF;
  2C3 : FFDF;
  2C4 : FFDF;
  2C5 : FFDF;
  2C6 : FFDF;
  2C7 : FFDF;
  2C8 : FFDF;
  2C9 : 51C8;
  2CA : 51C8;
  2CB : D160;
  2CC : D160;
  2CD : D160;
  2CE : D160;
  2CF : 51C8;
  2D0 : 51C8;
  2D1 : FDA6;
  2D2 : FDA6;
  2D3 : 51C8;
  2D4 : 51C8;
  2D5 : 51C8;
  2D6 : 51C8;
  2D7 : 51C8;
  2D8 : 51C8;
  2D9 : 51C8;
  2DA : 51C8;
  2DB : 51C8;
  2DC : 51C8;
  2DD : 51C8;
  2DE : 0000;
  2DF : 0000;
  2E0 : 51C8;
  2E1 : 51C8;
  2E2 : FFDF;
  2E3 : FFDF;
  2E4 : FFDF;
  2E5 : FFDF;
  2E6 : FFDF;
  2E7 : FFDF;
  2E8 : FFDF;
  2E9 : 51C8;
  2EA : 51C8;
  2EB : D160;
  2EC : D160;
  2ED : D160;
  2EE : D160;
  2EF : 51C8;
  2F0 : 51C8;
  2F1 : FDA6;
  2F2 : FDA6;
  2F3 : 51C8;
  2F4 : 51C8;
  2F5 : 51C8;
  2F6 : 51C8;
  2F7 : 51C8;
  2F8 : 51C8;
  2F9 : 51C8;
  2FA : 51C8;
  2FB : 51C8;
  2FC : 51C8;
  2FD : 51C8;
  2FE : 0000;
  2FF : 0000;
  300 : 51C8;
  301 : 51C8;
  302 : FFDF;
  303 : FFDF;
  304 : FFDF;
  305 : FFDF;
  306 : D739;
  307 : D739;
  308 : 51C8;
  309 : D160;
  30A : D160;
  30B : D160;
  30C : D160;
  30D : D160;
  30E : D160;
  30F : D160;
  310 : D160;
  311 : 51C8;
  312 : 51C8;
  313 : FDA6;
  314 : FDA6;
  315 : FDA6;
  316 : FDA6;
  317 : FDA6;
  318 : FDA6;
  319 : FDA6;
  31A : FDA6;
  31B : FDA6;
  31C : 51C8;
  31D : 51C8;
  31E : 0000;
  31F : 0000;
  320 : 51C8;
  321 : 51C8;
  322 : FFDF;
  323 : FFDF;
  324 : FFDF;
  325 : FFDF;
  326 : D739;
  327 : D739;
  328 : 51C8;
  329 : D160;
  32A : D160;
  32B : D160;
  32C : D160;
  32D : D160;
  32E : D160;
  32F : D160;
  330 : D160;
  331 : 51C8;
  332 : 51C8;
  333 : FDA6;
  334 : FDA6;
  335 : FDA6;
  336 : FDA6;
  337 : FDA6;
  338 : FDA6;
  339 : FDA6;
  33A : FDA6;
  33B : FDA6;
  33C : 51C8;
  33D : 51C8;
  33E : 0000;
  33F : 0000;
  340 : 51C8;
  341 : 51C8;
  342 : FFDF;
  343 : FFDF;
  344 : FFDF;
  345 : FFDF;
  346 : D739;
  347 : D739;
  348 : 51C8;
  349 : D160;
  34A : D160;
  34B : D160;
  34C : D160;
  34D : D160;
  34E : D160;
  34F : D160;
  350 : D160;
  351 : 51C8;
  352 : 51C8;
  353 : FDA6;
  354 : FDA6;
  355 : FDA6;
  356 : FDA6;
  357 : FDA6;
  358 : FDA6;
  359 : FDA6;
  35A : FDA6;
  35B : FDA6;
  35C : 51C8;
  35D : 51C8;
  35E : 0000;
  35F : 0000;
  360 : 0000;
  361 : 0000;
  362 : 51C8;
  363 : 51C8;
  364 : 51C8;
  365 : 51C8;
  366 : 51C8;
  367 : 51C8;
  368 : 51C8;
  369 : D160;
  36A : D160;
  36B : D160;
  36C : D160;
  36D : D160;
  36E : D160;
  36F : D160;
  370 : D160;
  371 : D160;
  372 : D160;
  373 : 51C8;
  374 : 51C8;
  375 : 51C8;
  376 : 51C8;
  377 : 51C8;
  378 : 51C8;
  379 : 51C8;
  37A : 51C8;
  37B : 51C8;
  37C : 0000;
  37D : 0000;
  37E : 0000;
  37F : 0000;
  380 : 0000;
  381 : 0000;
  382 : 51C8;
  383 : 51C8;
  384 : 51C8;
  385 : 51C8;
  386 : 51C8;
  387 : 51C8;
  388 : 51C8;
  389 : D160;
  38A : D160;
  38B : D160;
  38C : D160;
  38D : D160;
  38E : D160;
  38F : D160;
  390 : D160;
  391 : D160;
  392 : D160;
  393 : 51C8;
  394 : 51C8;
  395 : 51C8;
  396 : 51C8;
  397 : 51C8;
  398 : 51C8;
  399 : 51C8;
  39A : 51C8;
  39B : 51C8;
  39C : 0000;
  39D : 0000;
  39E : 0000;
  39F : 0000;
  3A0 : 0000;
  3A1 : 0000;
  3A2 : 0000;
  3A3 : 0000;
  3A4 : 0000;
  3A5 : 0000;
  3A6 : 0000;
  3A7 : 0000;
  3A8 : 0000;
  3A9 : 51C8;
  3AA : 51C8;
  3AB : 51C8;
  3AC : 51C8;
  3AD : 51C8;
  3AE : 51C8;
  3AF : 51C8;
  3B0 : 51C8;
  3B1 : 51C8;
  3B2 : 51C8;
  3B3 : 0000;
  3B4 : 0000;
  3B5 : 0000;
  3B6 : 0000;
  3B7 : 0000;
  3B8 : 0000;
  3B9 : 0000;
  3BA : 0000;
  3BB : 0000;
  3BC : 0000;
  3BD : 0000;
  3BE : 0000;
  3BF : 0000;
  3C0 : 0000;
  3C1 : 0000;
  3C2 : 0000;
  3C3 : 0000;
  3C4 : 0000;
  3C5 : 0000;
  3C6 : 0000;
  3C7 : 0000;
  3C8 : 0000;
  3C9 : 51C8;
  3CA : 51C8;
  3CB : 51C8;
  3CC : 51C8;
  3CD : 51C8;
  3CE : 51C8;
  3CF : 51C8;
  3D0 : 51C8;
  3D1 : 51C8;
  3D2 : 51C8;
  3D3 : 0000;
  3D4 : 0000;
  3D5 : 0000;
  3D6 : 0000;
  3D7 : 0000;
  3D8 : 0000;
  3D9 : 0000;
  3DA : 0000;
  3DB : 0000;
  3DC : 0000;
  3DD : 0000;
  3DE : 0000;
  3DF : 0000;
  3E0 : 0000;
  3E1 : 0000;
  3E2 : 0000;
  3E3 : 0000;
  3E4 : 0000;
  3E5 : 0000;
  3E6 : 0000;
  3E7 : 0000;
  3E8 : 0000;
  3E9 : 51C8;
  3EA : 51C8;
  3EB : 51C8;
  3EC : 51C8;
  3ED : 51C8;
  3EE : 51C8;
  3EF : 51C8;
  3F0 : 51C8;
  3F1 : 51C8;
  3F2 : 51C8;
  3F3 : 0000;
  3F4 : 0000;
  3F5 : 0000;
  3F6 : 0000;
  3F7 : 0000;
  3F8 : 0000;
  3F9 : 0000;
  3FA : 0000;
  3FB : 0000;
  3FC : 0000;
  3FD : 0000;
  3FE : 0000;
  3FF : 0000;
END;
