DEPTH = 1024;
WIDTH = 16;

ADDRESS_RADIX = HEX;
DATA_RADIX = HEX;

CONTENT BEGIN
  00 : 0000;
  01 : 0000;
  02 : 0000;
  03 : 0000;
  04 : 0000;
  05 : 0000;
  06 : 0000;
  07 : 0000;
  08 : 0000;
  09 : 0000;
  0A : 0000;
  0B : 51C8;
  0C : 51C9;
  0D : 51C8;
  0E : 51C8;
  0F : 51C8;
  10 : 51C8;
  11 : 51C8;
  12 : 51C8;
  13 : 51C8;
  14 : 51C8;
  15 : 51C9;
  16 : 51A8;
  17 : 0000;
  18 : 0000;
  19 : 0000;
  1A : 0000;
  1B : 0000;
  1C : 0000;
  1D : 0000;
  1E : 0000;
  1F : 0000;
  20 : 0000;
  21 : 0000;
  22 : 0000;
  23 : 0000;
  24 : 0000;
  25 : 0000;
  26 : 0000;
  27 : 0000;
  28 : 0000;
  29 : 0000;
  2A : 0000;
  2B : 4968;
  2C : 4968;
  2D : 4168;
  2E : 4168;
  2F : 4168;
  30 : 4968;
  31 : 51C8;
  32 : 51A8;
  33 : 4147;
  34 : 4147;
  35 : 4967;
  36 : 4146;
  37 : 0000;
  38 : 0000;
  39 : 0000;
  3A : 0000;
  3B : 0000;
  3C : 0000;
  3D : 0000;
  3E : 0000;
  3F : 0000;
  40 : 0000;
  41 : 0000;
  42 : 0000;
  43 : 0000;
  44 : 0000;
  45 : 0000;
  46 : 0000;
  47 : 51A8;
  48 : 51E9;
  49 : 51A8;
  4A : 4967;
  4B : 834B;
  4C : 938C;
  4D : 8B6B;
  4E : 8B6B;
  4F : 8B6B;
  50 : 8B6B;
  51 : 51A8;
  52 : 5A09;
  53 : 8BF0;
  54 : 8BD0;
  55 : 93F1;
  56 : 836E;
  57 : 4967;
  58 : 51A8;
  59 : 0000;
  5A : 0000;
  5B : 0000;
  5C : 0000;
  5D : 0000;
  5E : 0000;
  5F : 0000;
  60 : 0000;
  61 : 0000;
  62 : 0000;
  63 : 0000;
  64 : 0000;
  65 : 0000;
  66 : 0000;
  67 : 51A8;
  68 : 59E9;
  69 : 51C9;
  6A : 4968;
  6B : D5AF;
  6C : FF32;
  6D : FEF2;
  6E : FEF2;
  6F : FF12;
  70 : FED1;
  71 : 4988;
  72 : 6A8B;
  73 : FFFF;
  74 : FFFF;
  75 : FFFF;
  76 : BDB7;
  77 : 4968;
  78 : 51A8;
  79 : 0000;
  7A : 0000;
  7B : 0000;
  7C : 0000;
  7D : 0000;
  7E : 0000;
  7F : 0000;
  80 : 0000;
  81 : 0000;
  82 : 0000;
  83 : 0000;
  84 : 0000;
  85 : 0000;
  86 : 0000;
  87 : 4968;
  88 : 51A9;
  89 : 4988;
  8A : 4127;
  8B : CD6F;
  8C : FEF2;
  8D : FED2;
  8E : FED2;
  8F : FF12;
  90 : FED1;
  91 : 4147;
  92 : 624B;
  93 : FFFF;
  94 : FFDF;
  95 : FFFF;
  96 : B556;
  97 : 4126;
  98 : 4967;
  99 : 0000;
  9A : 0000;
  9B : 0000;
  9C : 0000;
  9D : 0000;
  9E : 0000;
  9F : 0000;
  A0 : 0000;
  A1 : 0000;
  A2 : 0000;
  A3 : 0000;
  A4 : 0000;
  A5 : 51C8;
  A6 : 4988;
  A7 : 938C;
  A8 : C54F;
  A9 : C50E;
  AA : BCEE;
  AB : EDCB;
  AC : FE0A;
  AD : FE0A;
  AE : FE0A;
  AF : 938B;
  B0 : 8B8C;
  B1 : C5B7;
  B2 : CE18;
  B3 : FFFF;
  B4 : FFDF;
  B5 : FFFF;
  B6 : E71C;
  B7 : C5B7;
  B8 : 9411;
  B9 : 4968;
  BA : 51C8;
  BB : 0000;
  BC : 0000;
  BD : 0000;
  BE : 0000;
  BF : 0000;
  C0 : 0000;
  C1 : 0000;
  C2 : 0000;
  C3 : 0000;
  C4 : 0000;
  C5 : 4968;
  C6 : 4969;
  C7 : A42D;
  C8 : FF73;
  C9 : FF32;
  CA : FF33;
  CB : FE08;
  CC : F585;
  CD : FDA5;
  CE : FDA5;
  CF : 4988;
  D0 : 49A9;
  D1 : FFFF;
  D2 : FFFF;
  D3 : FFDF;
  D4 : FFDF;
  D5 : FFDF;
  D6 : FFFF;
  D7 : FFFF;
  D8 : ACD4;
  D9 : 4947;
  DA : 4967;
  DB : 0000;
  DC : 0000;
  DD : 0000;
  DE : 0000;
  DF : 0000;
  E0 : 0000;
  E1 : 0000;
  E2 : 0000;
  E3 : 39E7;
  E4 : 5189;
  E5 : 5A29;
  E6 : 5A09;
  E7 : AC4C;
  E8 : FEF1;
  E9 : FEB0;
  EA : FEB1;
  EB : FDE9;
  EC : FDA6;
  ED : FDA6;
  EE : FDC6;
  EF : 59E8;
  F0 : 5A09;
  F1 : FFDF;
  F2 : F7DE;
  F3 : FFDF;
  F4 : FFDF;
  F5 : FFDF;
  F6 : F7BE;
  F7 : EF7D;
  F8 : A493;
  F9 : 5A0A;
  FA : 5A2A;
  FB : 5189;
  FC : 39E7;
  FD : 0000;
  FE : 0000;
  FF : 0000;
  100 : 0000;
  101 : 0000;
  102 : 0000;
  103 : 51A9;
  104 : 51A8;
  105 : 834B;
  106 : F6B1;
  107 : F60C;
  108 : FDC6;
  109 : FDC7;
  10A : FDC7;
  10B : FDC6;
  10C : FDA6;
  10D : FDA6;
  10E : FDC6;
  10F : 59E8;
  110 : 5A09;
  111 : DF5A;
  112 : DF5A;
  113 : FFDF;
  114 : FFDF;
  115 : FFFF;
  116 : BDB7;
  117 : 4988;
  118 : ACF4;
  119 : F77D;
  11A : 83AF;
  11B : 5188;
  11C : 51A9;
  11D : 0000;
  11E : 0000;
  11F : 0000;
  120 : 0000;
  121 : 0000;
  122 : 0000;
  123 : 3949;
  124 : 4969;
  125 : 834C;
  126 : FF74;
  127 : FE6C;
  128 : FD85;
  129 : FDA5;
  12A : FDA5;
  12B : FDA6;
  12C : FDA6;
  12D : FDA6;
  12E : FDC6;
  12F : 59E8;
  130 : 5A09;
  131 : D739;
  132 : DF5A;
  133 : FFDF;
  134 : FFDF;
  135 : FFFF;
  136 : B556;
  137 : 30A4;
  138 : AD14;
  139 : FFFF;
  13A : 8BD0;
  13B : 51A8;
  13C : 51A9;
  13D : 0000;
  13E : 0000;
  13F : 0000;
  140 : 0000;
  141 : 39E7;
  142 : 51A9;
  143 : 6A48;
  144 : 8B28;
  145 : AC29;
  146 : FEAE;
  147 : FE0A;
  148 : FDA5;
  149 : FDA6;
  14A : FDA6;
  14B : FDA6;
  14C : FDA6;
  14D : FDA6;
  14E : FDC6;
  14F : 59E8;
  150 : 5A09;
  151 : DF59;
  152 : DF5A;
  153 : FFDF;
  154 : FFDF;
  155 : FFFF;
  156 : BD76;
  157 : 38E5;
  158 : AD14;
  159 : FFFF;
  15A : 8BB0;
  15B : 5188;
  15C : 51C8;
  15D : 0000;
  15E : 0000;
  15F : 0000;
  160 : 0000;
  161 : 49A7;
  162 : 51C9;
  163 : 7AA8;
  164 : FE26;
  165 : FDC6;
  166 : FDA5;
  167 : FDA6;
  168 : FDA6;
  169 : FDA6;
  16A : FDA6;
  16B : FDA6;
  16C : FDA6;
  16D : FDA6;
  16E : FDC6;
  16F : 59E8;
  170 : 59E9;
  171 : DF59;
  172 : DF5A;
  173 : FFDF;
  174 : FFDF;
  175 : FFFF;
  176 : BD76;
  177 : 38E5;
  178 : ACF4;
  179 : FFFF;
  17A : 8BB0;
  17B : 5188;
  17C : 51C8;
  17D : 0000;
  17E : 0000;
  17F : 0000;
  180 : 0000;
  181 : 49A8;
  182 : 51A9;
  183 : 7288;
  184 : FE06;
  185 : FDC6;
  186 : FDA6;
  187 : FDA6;
  188 : FDA6;
  189 : FDA6;
  18A : FDA6;
  18B : FDA6;
  18C : FDA6;
  18D : FDA6;
  18E : FDC6;
  18F : 51A8;
  190 : 51C9;
  191 : DF9A;
  192 : E79B;
  193 : FFFF;
  194 : FFDF;
  195 : FFFF;
  196 : B556;
  197 : 3084;
  198 : ACF4;
  199 : FFFF;
  19A : 8BB0;
  19B : 5188;
  19C : 51C8;
  19D : 0000;
  19E : 0000;
  19F : 0000;
  1A0 : 0000;
  1A1 : 49A8;
  1A2 : 51A9;
  1A3 : 7288;
  1A4 : FDE6;
  1A5 : FDA6;
  1A6 : FDA6;
  1A7 : FDA6;
  1A8 : FDA6;
  1A9 : FDA6;
  1AA : FDA6;
  1AB : FDA6;
  1AC : FDA6;
  1AD : FDA6;
  1AE : FDC6;
  1AF : C467;
  1B0 : BC47;
  1B1 : 7B8E;
  1B2 : 8C30;
  1B3 : E79C;
  1B4 : EF9C;
  1B5 : FFFF;
  1B6 : E71C;
  1B7 : BD76;
  1B8 : DEDB;
  1B9 : FFFF;
  1BA : 8BB0;
  1BB : 5188;
  1BC : 51C8;
  1BD : 0000;
  1BE : 0000;
  1BF : 0000;
  1C0 : 0000;
  1C1 : 49A8;
  1C2 : 51A9;
  1C3 : 7288;
  1C4 : FE26;
  1C5 : FDE6;
  1C6 : FDE6;
  1C7 : FDE6;
  1C8 : FDE6;
  1C9 : FDE6;
  1CA : FDE6;
  1CB : FDC6;
  1CC : FDA6;
  1CD : FDA6;
  1CE : FDA6;
  1CF : FE06;
  1D0 : FDC6;
  1D1 : 3907;
  1D2 : 520A;
  1D3 : E7BA;
  1D4 : E79B;
  1D5 : FFFF;
  1D6 : FFFF;
  1D7 : FFFF;
  1D8 : FFFF;
  1D9 : FFFF;
  1DA : 8BD0;
  1DB : 5188;
  1DC : 51A9;
  1DD : 0000;
  1DE : 0000;
  1DF : 0000;
  1E0 : 0000;
  1E1 : 49A8;
  1E2 : 51A9;
  1E3 : 7268;
  1E4 : F5A6;
  1E5 : ED66;
  1E6 : ED66;
  1E7 : ED66;
  1E8 : ED66;
  1E9 : ED66;
  1EA : ED66;
  1EB : F5A6;
  1EC : FDA6;
  1ED : FDA6;
  1EE : FDA6;
  1EF : FDA6;
  1F0 : F586;
  1F1 : 59E8;
  1F2 : 6AAA;
  1F3 : D6F8;
  1F4 : D6F9;
  1F5 : EF5D;
  1F6 : EF5D;
  1F7 : EF5D;
  1F8 : EF5D;
  1F9 : F77D;
  1FA : 838F;
  1FB : 5188;
  1FC : 51C9;
  1FD : 51E9;
  1FE : 780F;
  1FF : 0000;
  200 : 0000;
  201 : 49A8;
  202 : 51C9;
  203 : 51C8;
  204 : 6208;
  205 : 6208;
  206 : 6208;
  207 : 6208;
  208 : 6208;
  209 : 6208;
  20A : 51C8;
  20B : D4C7;
  20C : FDC6;
  20D : FDA6;
  20E : FDA6;
  20F : FDA6;
  210 : F5A6;
  211 : ED66;
  212 : D4E7;
  213 : 520A;
  214 : 5A2A;
  215 : 624A;
  216 : 624A;
  217 : 624A;
  218 : 624A;
  219 : 624A;
  21A : 59E9;
  21B : 51C8;
  21C : 51A8;
  21D : 51C8;
  21E : 49E7;
  21F : 0000;
  220 : 0000;
  221 : 0005;
  222 : 4968;
  223 : 4147;
  224 : 3927;
  225 : 4127;
  226 : 4127;
  227 : 4127;
  228 : 4127;
  229 : 4127;
  22A : 30E8;
  22B : D4C6;
  22C : FE26;
  22D : FDC6;
  22E : FDA6;
  22F : FDA6;
  230 : FDC6;
  231 : FE46;
  232 : ED86;
  233 : 3148;
  234 : 4188;
  235 : 3968;
  236 : 3968;
  237 : 3968;
  238 : 3968;
  239 : 3968;
  23A : 41A9;
  23B : 41C9;
  23C : 49C9;
  23D : 49EA;
  23E : 2129;
  23F : 0000;
  240 : 51A8;
  241 : 5A09;
  242 : 938C;
  243 : 8B8C;
  244 : 8BF0;
  245 : 8BD0;
  246 : 8BD0;
  247 : 8BD0;
  248 : 8BF0;
  249 : 8BAD;
  24A : 836B;
  24B : B428;
  24C : BC47;
  24D : F586;
  24E : FDC6;
  24F : FDA6;
  250 : F5A6;
  251 : BC67;
  252 : BBE7;
  253 : 89A5;
  254 : 89C5;
  255 : 89C5;
  256 : 89C5;
  257 : 89C5;
  258 : 89C5;
  259 : 89C5;
  25A : 89C5;
  25B : 89C5;
  25C : 89C5;
  25D : 91C5;
  25E : 59C8;
  25F : 51A9;
  260 : 51C9;
  261 : 6249;
  262 : FF31;
  263 : FF34;
  264 : FFFF;
  265 : FFFF;
  266 : FFFF;
  267 : FFFF;
  268 : FFFF;
  269 : FF77;
  26A : FF51;
  26B : 7AEB;
  26C : 3928;
  26D : E526;
  26E : FDC6;
  26F : FDC6;
  270 : F586;
  271 : 4189;
  272 : 6187;
  273 : F9C0;
  274 : F9C0;
  275 : F9C0;
  276 : F9C0;
  277 : F9C0;
  278 : F9C0;
  279 : F9C0;
  27A : F9C0;
  27B : F9C0;
  27C : F9C0;
  27D : F9C0;
  27E : 61C8;
  27F : 51C9;
  280 : 51A8;
  281 : 6229;
  282 : FED0;
  283 : FEF3;
  284 : FFFF;
  285 : FFDF;
  286 : FFDF;
  287 : FFDF;
  288 : FFFF;
  289 : FF57;
  28A : FF51;
  28B : 7B0B;
  28C : 3928;
  28D : E526;
  28E : FDE6;
  28F : FDE6;
  290 : F5A6;
  291 : 41A9;
  292 : 61A7;
  293 : F9C0;
  294 : F9C0;
  295 : F9C0;
  296 : F9C0;
  297 : F9C0;
  298 : F9C0;
  299 : F9C0;
  29A : F9C0;
  29B : F9C0;
  29C : F9C0;
  29D : F9C0;
  29E : 61C8;
  29F : 51C9;
  2A0 : 51A8;
  2A1 : 624A;
  2A2 : FF9A;
  2A3 : FF9B;
  2A4 : FFDF;
  2A5 : FFDF;
  2A6 : FFDF;
  2A7 : FFDF;
  2A8 : FFFF;
  2A9 : BD33;
  2AA : 834B;
  2AB : A348;
  2AC : AB26;
  2AD : E465;
  2AE : ECA5;
  2AF : 9327;
  2B0 : 8B07;
  2B1 : C1A3;
  2B2 : B9C3;
  2B3 : 89C6;
  2B4 : 89C5;
  2B5 : 89C5;
  2B6 : 89C5;
  2B7 : 89C5;
  2B8 : 89C5;
  2B9 : 89C5;
  2BA : 89C5;
  2BB : 89C5;
  2BC : 89C5;
  2BD : 91C5;
  2BE : 59C8;
  2BF : 51A9;
  2C0 : 51A8;
  2C1 : 624A;
  2C2 : FFFF;
  2C3 : FFFF;
  2C4 : FFDF;
  2C5 : FFDF;
  2C6 : FFDF;
  2C7 : FFFF;
  2C8 : FFFF;
  2C9 : 8BF1;
  2CA : 28C7;
  2CB : BB66;
  2CC : F445;
  2CD : E3E5;
  2CE : E3E5;
  2CF : 4168;
  2D0 : 4968;
  2D1 : F9C0;
  2D2 : F1C0;
  2D3 : 31CA;
  2D4 : 39C9;
  2D5 : 39C9;
  2D6 : 39C9;
  2D7 : 39C9;
  2D8 : 39C9;
  2D9 : 39C9;
  2DA : 39C9;
  2DB : 39C9;
  2DC : 41C9;
  2DD : 49C9;
  2DE : 014A;
  2DF : 0000;
  2E0 : 51A8;
  2E1 : 624A;
  2E2 : FFFF;
  2E3 : FFDF;
  2E4 : FFDF;
  2E5 : FFDE;
  2E6 : FFDE;
  2E7 : F79D;
  2E8 : EF7D;
  2E9 : 9410;
  2EA : 4987;
  2EB : BB66;
  2EC : E405;
  2ED : E405;
  2EE : E405;
  2EF : 6208;
  2F0 : 61E8;
  2F1 : F1C0;
  2F2 : D9C1;
  2F3 : 59C8;
  2F4 : 61C8;
  2F5 : 61C8;
  2F6 : 61C8;
  2F7 : 61C8;
  2F8 : 61C8;
  2F9 : 61C8;
  2FA : 61C8;
  2FB : 61C8;
  2FC : 51C8;
  2FD : 51C9;
  2FE : 49A8;
  2FF : 0000;
  300 : 51A8;
  301 : 624A;
  302 : FFFF;
  303 : FFDF;
  304 : FFDF;
  305 : FF9B;
  306 : FF12;
  307 : B4AE;
  308 : 49CA;
  309 : A327;
  30A : DBE5;
  30B : DBE5;
  30C : E405;
  30D : E405;
  30E : E405;
  30F : D3C5;
  310 : CBA5;
  311 : 59A8;
  312 : 71C7;
  313 : F1C0;
  314 : E9C0;
  315 : E9C0;
  316 : E9C0;
  317 : E9C0;
  318 : E9C0;
  319 : E9C0;
  31A : E9C0;
  31B : F1C0;
  31C : 71C7;
  31D : 51C9;
  31E : 49A8;
  31F : 0000;
  320 : 59C9;
  321 : 6A6B;
  322 : FFFF;
  323 : FFFF;
  324 : FFFF;
  325 : FFFB;
  326 : FF51;
  327 : AC6C;
  328 : 30E7;
  329 : AB06;
  32A : EC45;
  32B : E405;
  32C : E405;
  32D : E405;
  32E : E405;
  32F : E405;
  330 : DC05;
  331 : 3989;
  332 : 5987;
  333 : F9C0;
  334 : F9C0;
  335 : F9C0;
  336 : F9C0;
  337 : F9C0;
  338 : F9C0;
  339 : F9C0;
  33A : F9C0;
  33B : F9C0;
  33C : 79C7;
  33D : 59EA;
  33E : 5187;
  33F : 0000;
  340 : 51A8;
  341 : 622A;
  342 : C5D8;
  343 : C5B7;
  344 : C5D7;
  345 : C594;
  346 : C52E;
  347 : 8B8B;
  348 : 4168;
  349 : AB26;
  34A : E425;
  34B : E405;
  34C : E405;
  34D : E405;
  34E : E405;
  34F : E405;
  350 : DBE5;
  351 : 8287;
  352 : 8A67;
  353 : C1A3;
  354 : C1C3;
  355 : C1C3;
  356 : C1C3;
  357 : C1C3;
  358 : C1C3;
  359 : C1C3;
  35A : C1C3;
  35B : C1C3;
  35C : 71A7;
  35D : 51C9;
  35E : 5188;
  35F : 0000;
  360 : 0000;
  361 : 3945;
  362 : 4988;
  363 : 4967;
  364 : 4967;
  365 : 4988;
  366 : 4988;
  367 : 49A8;
  368 : 49A9;
  369 : AB26;
  36A : EC25;
  36B : E405;
  36C : E405;
  36D : E405;
  36E : E405;
  36F : E405;
  370 : E405;
  371 : EC25;
  372 : D3C5;
  373 : 41A9;
  374 : 49C9;
  375 : 49C9;
  376 : 49C9;
  377 : 49C9;
  378 : 49C9;
  379 : 49C9;
  37A : 49C9;
  37B : 51E9;
  37C : 41A9;
  37D : 0000;
  37E : 0000;
  37F : 0000;
  380 : 0000;
  381 : 49A8;
  382 : 59C9;
  383 : 51C9;
  384 : 51C9;
  385 : 51C9;
  386 : 51C9;
  387 : 51C9;
  388 : 49A9;
  389 : AB26;
  38A : EC25;
  38B : E405;
  38C : E405;
  38D : E405;
  38E : E405;
  38F : E405;
  390 : E405;
  391 : EC25;
  392 : D3C5;
  393 : 49A9;
  394 : 51C9;
  395 : 51C9;
  396 : 51C9;
  397 : 51C9;
  398 : 51C9;
  399 : 51C9;
  39A : 51C9;
  39B : 59E9;
  39C : 51A8;
  39D : 0000;
  39E : 0000;
  39F : 0000;
  3A0 : 0000;
  3A1 : 39E7;
  3A2 : 51C9;
  3A3 : 51A8;
  3A4 : 51A8;
  3A5 : 51A8;
  3A6 : 51A8;
  3A7 : 51A8;
  3A8 : 49A9;
  3A9 : 7A67;
  3AA : 8AA7;
  3AB : 8287;
  3AC : 8287;
  3AD : 8287;
  3AE : 8287;
  3AF : 8287;
  3B0 : 8287;
  3B1 : 8287;
  3B2 : 8267;
  3B3 : 49A9;
  3B4 : 51A8;
  3B5 : 51A8;
  3B6 : 51A8;
  3B7 : 51A8;
  3B8 : 51A8;
  3B9 : 51A8;
  3BA : 51A8;
  3BB : 51C9;
  3BC : 59E9;
  3BD : 0000;
  3BE : 0000;
  3BF : 0000;
  3C0 : 0000;
  3C1 : 0000;
  3C2 : 0000;
  3C3 : 0000;
  3C4 : 0000;
  3C5 : 0000;
  3C6 : 0000;
  3C7 : 0000;
  3C8 : 0000;
  3C9 : 4988;
  3CA : 49A9;
  3CB : 4989;
  3CC : 4989;
  3CD : 4989;
  3CE : 4989;
  3CF : 4989;
  3D0 : 4989;
  3D1 : 49A9;
  3D2 : 4989;
  3D3 : 0000;
  3D4 : 0000;
  3D5 : 0000;
  3D6 : 0000;
  3D7 : 0000;
  3D8 : 0000;
  3D9 : 0000;
  3DA : 0000;
  3DB : 0000;
  3DC : 0000;
  3DD : 0000;
  3DE : 0000;
  3DF : 0000;
  3E0 : 0000;
  3E1 : 0000;
  3E2 : 0000;
  3E3 : 0000;
  3E4 : 0000;
  3E5 : 0000;
  3E6 : 0000;
  3E7 : 0000;
  3E8 : 0000;
  3E9 : 51A8;
  3EA : 51C9;
  3EB : 51C8;
  3EC : 51C8;
  3ED : 51C8;
  3EE : 51C8;
  3EF : 51C8;
  3F0 : 51C8;
  3F1 : 51C8;
  3F2 : 51A8;
  3F3 : 0000;
  3F4 : 0000;
  3F5 : 0000;
  3F6 : 0000;
  3F7 : 0000;
  3F8 : 0000;
  3F9 : 0000;
  3FA : 0000;
  3FB : 0000;
  3FC : 0000;
  3FD : 0000;
  3FE : 0000;
  3FF : 0000;
END;
